<?xml version="1.0" encoding="UTF-8"?>

<!-- generated on 2024-06-02 13:09:13.535797 by osmWebWizard.py v1_18_0+0000-03ecfdea036
<configuration>
    <net-file value="C:\Users\hsarw\OneDrive\Desktop\Others\FYP\basic_app\2024-06-02-13-09-07\osm.net.xml.gz"/>
    <output-trip-file value="C:\Users\hsarw\OneDrive\Desktop\Others\FYP\basic_app\2024-06-02-13-09-07\osm.passenger.trips.xml"/>
    <route-file value="C:\Users\hsarw\OneDrive\Desktop\Others\FYP\basic_app\2024-06-02-13-09-07\osm.passenger.rou.xml"/>
    <prefix value="veh"/>
    <trip-attributes value="departLane=&quot;best&quot;"/>
    <fringe-start-attributes value="departSpeed=&quot;max&quot;"/>
    <vehicle-class value="passenger"/>
    <lanes value="True"/>
    <fringe-factor value="5"/>
    <allow-fringe.min-length value="1000.0"/>
    <via-edge-types value="highway.motorway,highway.motorway_link,highway.trunk_link,highway.primary_link,highway.secondary_link,highway.tertiary_link"/>
    <min-distance value="300.0"/>
    <min-distance.fringe value="10.0"/>
    <remove-loops value="True"/>
    <validate value="True"/>
    <insertion-density value="12.0"/>
</configuration>
-->

<!-- generated on 2024-06-02 13:09:13 by Eclipse SUMO duarouter Version 1.18.0
<configuration xmlns:xsi="http://www.w3.org/2001/XMLSchema-instance" xsi:noNamespaceSchemaLocation="http://sumo.dlr.de/xsd/duarouterConfiguration.xsd">

    <input>
        <net-file value="C:\Users\hsarw\OneDrive\Desktop\Others\FYP\basic_app\2024-06-02-13-09-07\osm.net.xml.gz"/>
        <route-files value="C:\Users\hsarw\OneDrive\Desktop\Others\FYP\basic_app\2024-06-02-13-09-07\osm.passenger.trips.xml"/>
    </input>

    <output>
        <output-file value="C:\Users\hsarw\OneDrive\Desktop\Others\FYP\basic_app\2024-06-02-13-09-07\osm.passenger.trips.xml.tmp"/>
        <alternatives-output value="NUL"/>
        <write-trips value="true"/>
    </output>

    <processing>
        <remove-loops value="true"/>
    </processing>

    <time>
        <begin value="0.0"/>
        <end value="3600.0"/>
    </time>

    <report>
        <no-warnings value="true"/>
        <ignore-errors value="true"/>
        <no-step-log value="true"/>
    </report>

</configuration>
-->

<routes xmlns:xsi="http://www.w3.org/2001/XMLSchema-instance" xsi:noNamespaceSchemaLocation="http://sumo.dlr.de/xsd/routes_file.xsd">
    <vType id="veh_passenger" vClass="passenger"/>
    <trip id="veh0" type="veh_passenger" depart="0.00" departLane="best" from="23121445#3" to="202156994#0"/>
    <trip id="veh1" type="veh_passenger" depart="119.91" departLane="best" departSpeed="max" from="24913519#0" to="-23121445#0"/>
    <trip id="veh2" type="veh_passenger" depart="239.82" departLane="best" departSpeed="max" from="23121445#0" to="202156994#0"/>
    <trip id="veh3" type="veh_passenger" depart="359.73" departLane="best" from="23121445#2" to="202156994#0"/>
    <trip id="veh4" type="veh_passenger" depart="479.63" departLane="best" departSpeed="max" from="54048862#0" to="4611698"/>
    <trip id="veh5" type="veh_passenger" depart="599.54" departLane="best" from="831694400#0" to="202156994#0"/>
    <trip id="veh6" type="veh_passenger" depart="719.45" departLane="best" departSpeed="max" from="24913519#0" to="-23121445#1"/>
    <trip id="veh7" type="veh_passenger" depart="839.36" departLane="best" departSpeed="max" from="23121445#0" to="202156994#0"/>
    <trip id="veh8" type="veh_passenger" depart="959.27" departLane="best" from="23121445#6" to="202156994#0"/>
    <trip id="veh9" type="veh_passenger" depart="1079.18" departLane="best" departSpeed="max" from="23121445#0" to="202156994#0"/>
    <trip id="veh10" type="veh_passenger" depart="1199.08" departLane="best" from="23121445#5" to="202156994#0"/>
    <trip id="veh12" type="veh_passenger" depart="1438.90" departLane="best" from="23121445#2" to="202156994#0"/>
    <trip id="veh13" type="veh_passenger" depart="1558.81" departLane="best" departSpeed="max" from="54048862#0" to="202156994#0"/>
    <trip id="veh14" type="veh_passenger" depart="1678.72" departLane="best" from="23121445#5" to="202156994#0"/>
    <trip id="veh16" type="veh_passenger" depart="1918.53" departLane="best" from="541763975" to="61584187#1"/>
    <trip id="veh17" type="veh_passenger" depart="2038.44" departLane="best" from="23121445#1" to="202156994#0"/>
    <trip id="veh18" type="veh_passenger" depart="2158.35" departLane="best" from="23121445#6" to="202156994#0"/>
    <trip id="veh19" type="veh_passenger" depart="2278.26" departLane="best" departSpeed="max" from="24913519#0" to="-23121445#1"/>
    <trip id="veh21" type="veh_passenger" depart="2518.08" departLane="best" departSpeed="max" from="23121445#0" to="202156994#0"/>
    <trip id="veh22" type="veh_passenger" depart="2637.98" departLane="best" departSpeed="max" from="24913519#0" to="-23121445#3"/>
    <trip id="veh23" type="veh_passenger" depart="2757.89" departLane="best" departSpeed="max" from="23121445#0" to="202156994#0"/>
    <trip id="veh24" type="veh_passenger" depart="2877.80" departLane="best" departSpeed="max" from="54048862#0" to="202156994#0"/>
    <trip id="veh25" type="veh_passenger" depart="2997.71" departLane="best" from="54048862#2" to="202156994#0"/>
    <trip id="veh26" type="veh_passenger" depart="3117.62" departLane="best" departSpeed="max" from="23121445#0" to="202156994#0"/>
    <trip id="veh27" type="veh_passenger" depart="3237.53" departLane="best" departSpeed="max" from="24913519#0" to="61584187#1"/>
    <trip id="veh28" type="veh_passenger" depart="3357.43" departLane="best" departSpeed="max" from="24913519#0" to="-23121445#0"/>
    <trip id="veh29" type="veh_passenger" depart="3477.34" departLane="best" departSpeed="max" from="24913519#0" to="-23121445#0"/>
</routes>
