<?xml version="1.0" encoding="UTF-8"?>

<!-- generated on 2024-06-10 15:22:23.002157 by osmWebWizard.py v1_18_0+0000-03ecfdea036
<configuration>
    <net-file value="C:\Users\hsarw\OneDrive\Desktop\Others\FYP\basic_app\2024-06-10-15-21-57\osm.net.xml.gz"/>
    <output-trip-file value="C:\Users\hsarw\OneDrive\Desktop\Others\FYP\basic_app\2024-06-10-15-21-57\osm.passenger.trips.xml"/>
    <route-file value="C:\Users\hsarw\OneDrive\Desktop\Others\FYP\basic_app\2024-06-10-15-21-57\osm.passenger.rou.xml"/>
    <prefix value="veh"/>
    <trip-attributes value="departLane=&quot;best&quot;"/>
    <fringe-start-attributes value="departSpeed=&quot;max&quot;"/>
    <vehicle-class value="passenger"/>
    <lanes value="True"/>
    <fringe-factor value="5"/>
    <allow-fringe.min-length value="1000.0"/>
    <via-edge-types value="highway.motorway,highway.motorway_link,highway.trunk_link,highway.primary_link,highway.secondary_link,highway.tertiary_link"/>
    <min-distance value="300.0"/>
    <min-distance.fringe value="10.0"/>
    <remove-loops value="True"/>
    <validate value="True"/>
    <insertion-density value="12.0"/>
</configuration>
-->

<!-- generated on 2024-06-10 15:22:22 by Eclipse SUMO duarouter Version 1.18.0
<configuration xmlns:xsi="http://www.w3.org/2001/XMLSchema-instance" xsi:noNamespaceSchemaLocation="http://sumo.dlr.de/xsd/duarouterConfiguration.xsd">

    <input>
        <net-file value="C:\Users\hsarw\OneDrive\Desktop\Others\FYP\basic_app\2024-06-10-15-21-57\osm.net.xml.gz"/>
        <route-files value="C:\Users\hsarw\OneDrive\Desktop\Others\FYP\basic_app\2024-06-10-15-21-57\osm.passenger.trips.xml"/>
    </input>

    <output>
        <output-file value="C:\Users\hsarw\OneDrive\Desktop\Others\FYP\basic_app\2024-06-10-15-21-57\osm.passenger.trips.xml.tmp"/>
        <alternatives-output value="NUL"/>
        <write-trips value="true"/>
    </output>

    <processing>
        <remove-loops value="true"/>
    </processing>

    <time>
        <begin value="0.0"/>
        <end value="3600.0"/>
    </time>

    <report>
        <no-warnings value="true"/>
        <ignore-errors value="true"/>
        <no-step-log value="true"/>
    </report>

</configuration>
-->

<routes xmlns:xsi="http://www.w3.org/2001/XMLSchema-instance" xsi:noNamespaceSchemaLocation="http://sumo.dlr.de/xsd/routes_file.xsd">
    <vType id="veh_passenger" vClass="passenger"/>
    <trip id="veh0" type="veh_passenger" depart="0.00" departLane="best" from="24243092#0" to="-111833185#0"/>
    <trip id="veh1" type="veh_passenger" depart="12.98" departLane="best" departSpeed="max" from="66071379#1" to="-4412868#2"/>
    <trip id="veh2" type="veh_passenger" depart="25.96" departLane="best" from="340498976#4" to="24913519#1"/>
    <trip id="veh3" type="veh_passenger" depart="38.94" departLane="best" from="541763975" to="1198409426#2"/>
    <trip id="veh4" type="veh_passenger" depart="51.92" departLane="best" from="1151064395#1" to="-1119933622"/>
    <trip id="veh5" type="veh_passenger" depart="64.90" departLane="best" departSpeed="max" from="4610524#1" to="195397541#4"/>
    <trip id="veh6" type="veh_passenger" depart="77.89" departLane="best" from="4610479#0" to="-1123150361#1"/>
    <trip id="veh7" type="veh_passenger" depart="90.87" departLane="best" departSpeed="max" from="111833185#0" to="-195411606"/>
    <trip id="veh8" type="veh_passenger" depart="103.85" departLane="best" from="61583424#1" to="1116360926#1"/>
    <trip id="veh9" type="veh_passenger" depart="116.83" departLane="best" from="507023458#0" to="202156991"/>
    <trip id="veh10" type="veh_passenger" depart="129.81" departLane="best" from="190447767" to="82654059#3"/>
    <trip id="veh11" type="veh_passenger" depart="142.79" departLane="best" from="1126244314#0" to="171826984#2"/>
    <trip id="veh12" type="veh_passenger" depart="155.77" departLane="best" from="461526152#1" to="202157002#0"/>
    <trip id="veh13" type="veh_passenger" depart="168.75" departLane="best" from="-51167934#3" to="194962375#2"/>
    <trip id="veh14" type="veh_passenger" depart="181.73" departLane="best" from="30721662#0" to="-1126465703#0"/>
    <trip id="veh15" type="veh_passenger" depart="194.71" departLane="best" from="23852053#1" to="1119935543#0"/>
    <trip id="veh16" type="veh_passenger" depart="207.70" departLane="best" from="1126234503#0" to="38208961"/>
    <trip id="veh17" type="veh_passenger" depart="220.68" departLane="best" departSpeed="max" from="-55741054" to="61583423#1"/>
    <trip id="veh18" type="veh_passenger" depart="233.66" departLane="best" from="24913519#1" to="202156991"/>
    <trip id="veh19" type="veh_passenger" depart="246.64" departLane="best" departSpeed="max" from="-24243107" to="339201177#1"/>
    <trip id="veh21" type="veh_passenger" depart="272.60" departLane="best" from="831659093#0" to="23013165"/>
    <trip id="veh22" type="veh_passenger" depart="285.58" departLane="best" departSpeed="max" from="194073677#0" to="251884680#1"/>
    <trip id="veh23" type="veh_passenger" depart="298.56" departLane="best" from="490365295#0" to="42103020#0"/>
    <trip id="veh24" type="veh_passenger" depart="311.54" departLane="best" departSpeed="max" from="-4611693#3" to="-1123106322#1"/>
    <trip id="veh25" type="veh_passenger" depart="324.52" departLane="best" from="-1102369942" to="51167934#3"/>
    <trip id="veh26" type="veh_passenger" depart="337.51" departLane="best" from="-4412868#1" to="61584187#1"/>
    <trip id="veh27" type="veh_passenger" depart="350.49" departLane="best" departSpeed="max" from="541295978#0" to="1101961674#4"/>
    <trip id="veh28" type="veh_passenger" depart="363.47" departLane="best" departSpeed="max" from="24914992" to="1126244314#1"/>
    <trip id="veh29" type="veh_passenger" depart="376.45" departLane="best" departSpeed="max" from="606078065#0" to="-23809670#0"/>
    <trip id="veh30" type="veh_passenger" depart="389.43" departLane="best" departSpeed="max" from="-55741054" to="-4611694#1"/>
    <trip id="veh31" type="veh_passenger" depart="402.41" departLane="best" from="194073677#1" to="-51167934#0"/>
    <trip id="veh32" type="veh_passenger" depart="415.39" departLane="best" from="-195411605#1" to="51167934#4"/>
    <trip id="veh33" type="veh_passenger" depart="428.37" departLane="best" from="1127595983" to="1151064403"/>
    <trip id="veh34" type="veh_passenger" depart="441.35" departLane="best" from="882389494#1" to="-15977422#0"/>
    <trip id="veh35" type="veh_passenger" depart="454.33" departLane="best" from="-168940071#1" to="-1126465703#0"/>
    <trip id="veh36" type="veh_passenger" depart="467.32" departLane="best" departSpeed="max" from="-188914559" to="-202817674#3"/>
    <trip id="veh37" type="veh_passenger" depart="480.30" departLane="best" departSpeed="max" from="4610374" to="11483007#0"/>
    <trip id="veh38" type="veh_passenger" depart="493.28" departLane="best" from="-1198409426#2" to="1123105979#1"/>
    <trip id="veh40" type="veh_passenger" depart="519.24" departLane="best" from="-1102369940#1" to="327518240#1"/>
    <trip id="veh41" type="veh_passenger" depart="532.22" departLane="best" departSpeed="max" from="28251222#0" to="171826984#2"/>
    <trip id="veh42" type="veh_passenger" depart="545.20" departLane="best" departSpeed="max" from="-55741054" to="23013165"/>
    <trip id="veh43" type="veh_passenger" depart="558.18" departLane="best" from="-194962375#0" to="1151064403"/>
    <trip id="veh44" type="veh_passenger" depart="571.16" departLane="best" from="1170522572#0" to="-750204886#0"/>
    <trip id="veh45" type="veh_passenger" depart="584.14" departLane="best" departSpeed="max" from="541295978#0" to="-51167934#0"/>
    <trip id="veh46" type="veh_passenger" depart="597.12" departLane="best" from="15971197" to="-23809670#0"/>
    <trip id="veh48" type="veh_passenger" depart="623.09" departLane="best" from="1077923225#0" to="22972454"/>
    <trip id="veh49" type="veh_passenger" depart="636.07" departLane="best" from="-222328410" to="195411605#0"/>
    <trip id="veh50" type="veh_passenger" depart="649.05" departLane="best" departSpeed="max" from="380240681" to="171826984#2"/>
    <trip id="veh55" type="veh_passenger" depart="713.95" departLane="best" from="-15971189" to="137630045#1"/>
    <trip id="veh56" type="veh_passenger" depart="726.93" departLane="best" departSpeed="max" from="-120675240#3" to="35578557#2"/>
    <trip id="veh57" type="veh_passenger" depart="739.92" departLane="best" from="-38208961" to="-194069450#1"/>
    <trip id="veh58" type="veh_passenger" depart="752.90" departLane="best" from="136571494#0" to="171826984#2"/>
    <trip id="veh60" type="veh_passenger" depart="778.86" departLane="best" from="1151064396" to="-43156728#1"/>
    <trip id="veh61" type="veh_passenger" depart="791.84" departLane="best" departSpeed="max" from="194069450#0" to="339201177#1"/>
    <trip id="veh62" type="veh_passenger" depart="804.82" departLane="best" from="339201185" to="1101961674#2"/>
    <trip id="veh63" type="veh_passenger" depart="817.80" departLane="best" departSpeed="max" from="1170522571" to="-168940071#4"/>
    <trip id="veh64" type="veh_passenger" depart="830.78" departLane="best" from="35578559" to="-4610374"/>
    <trip id="veh65" type="veh_passenger" depart="843.76" departLane="best" departSpeed="max" from="111833185#0" to="195397541#3"/>
    <trip id="veh66" type="veh_passenger" depart="856.74" departLane="best" departSpeed="max" from="-4611693#3" to="1151064403"/>
    <trip id="veh67" type="veh_passenger" depart="869.73" departLane="best" departSpeed="max" from="-4611693#3" to="54048862#2"/>
    <trip id="veh68" type="veh_passenger" depart="882.71" departLane="best" from="-51167934#2" to="-1171295120#0"/>
    <trip id="veh69" type="veh_passenger" depart="895.69" departLane="best" from="4610375#0" to="-194069450#1"/>
    <trip id="veh71" type="veh_passenger" depart="921.65" departLane="best" from="122820534#1" to="42103020#0"/>
    <trip id="veh72" type="veh_passenger" depart="934.63" departLane="best" from="1151064396" to="120675240#1"/>
    <trip id="veh73" type="veh_passenger" depart="947.61" departLane="best" from="339201217" to="24243107"/>
    <trip id="veh75" type="veh_passenger" depart="973.57" departLane="best" from="-51167934#3" to="-465376254#2"/>
    <trip id="veh76" type="veh_passenger" depart="986.55" departLane="best" from="316746323#2" to="1149417521#1"/>
    <trip id="veh78" type="veh_passenger" depart="1012.52" departLane="best" departSpeed="max" from="1170522571" to="46140376#0"/>
    <trip id="veh79" type="veh_passenger" depart="1025.50" departLane="best" departSpeed="max" from="194069450#0" to="-1126465703#0"/>
    <trip id="veh80" type="veh_passenger" depart="1038.48" departLane="best" from="1126234503#0" to="4611693#1"/>
    <trip id="veh82" type="veh_passenger" depart="1064.44" departLane="best" from="507023458#0" to="-23121445#1"/>
    <trip id="veh83" type="veh_passenger" depart="1077.42" departLane="best" from="153698394#3" to="-43156728#1"/>
    <trip id="veh84" type="veh_passenger" depart="1090.40" departLane="best" from="1144362247" to="114667396#2"/>
    <trip id="veh85" type="veh_passenger" depart="1103.38" departLane="best" from="1126244314#0" to="82654059#3"/>
    <trip id="veh86" type="veh_passenger" depart="1116.36" departLane="best" departSpeed="max" from="-55741054" to="42103020#0"/>
    <trip id="veh87" type="veh_passenger" depart="1129.35" departLane="best" from="61583424#1" to="831694400#1"/>
    <trip id="veh88" type="veh_passenger" depart="1142.33" departLane="best" departSpeed="max" from="194073677#0" to="31313667#2"/>
    <trip id="veh89" type="veh_passenger" depart="1155.31" departLane="best" from="23121445#0" to="-751595930"/>
    <trip id="veh90" type="veh_passenger" depart="1168.29" departLane="best" departSpeed="max" from="66071379#0" to="194962375#2"/>
    <trip id="veh91" type="veh_passenger" depart="1181.27" departLane="best" departSpeed="max" from="194069450#0" to="340498976#4"/>
    <trip id="veh92" type="veh_passenger" depart="1194.25" departLane="best" from="1171295120#1" to="194962375#2"/>
    <trip id="veh93" type="veh_passenger" depart="1207.23" departLane="best" from="15977422#1" to="4611707#1"/>
    <trip id="veh94" type="veh_passenger" depart="1220.21" departLane="best" from="23121445#2" to="82654059#0"/>
    <trip id="veh95" type="veh_passenger" depart="1233.19" departLane="best" from="-153698390#2" to="-28251222#0"/>
    <trip id="veh96" type="veh_passenger" depart="1246.17" departLane="best" from="202157002#0" to="24243107"/>
    <trip id="veh97" type="veh_passenger" depart="1259.15" departLane="best" from="4611694#1" to="-194069450#1"/>
    <trip id="veh98" type="veh_passenger" depart="1272.14" departLane="best" from="541763975" to="-4611694#1"/>
    <trip id="veh99" type="veh_passenger" depart="1285.12" departLane="best" departSpeed="max" from="1151064386#0" to="194962375#2"/>
    <trip id="veh100" type="veh_passenger" depart="1298.10" departLane="best" from="169195795#1" to="606078072#1"/>
    <trip id="veh101" type="veh_passenger" depart="1311.08" departLane="best" from="-465376254#3" to="1126244314#1"/>
    <trip id="veh102" type="veh_passenger" depart="1324.06" departLane="best" from="4611699#1" to="1077923225#0"/>
    <trip id="veh103" type="veh_passenger" depart="1337.04" departLane="best" from="-1110526068" to="169195795#0"/>
    <trip id="veh104" type="veh_passenger" depart="1350.02" departLane="best" departSpeed="max" from="-120675240#3" to="-23809670#0"/>
    <trip id="veh105" type="veh_passenger" depart="1363.00" departLane="best" departSpeed="max" from="-55741054" to="606078072#1"/>
    <trip id="veh106" type="veh_passenger" depart="1375.98" departLane="best" departSpeed="max" from="541295978#0" to="465376255#2"/>
    <trip id="veh107" type="veh_passenger" depart="1388.96" departLane="best" departSpeed="max" from="1123106898" to="-202817674#2"/>
    <trip id="veh108" type="veh_passenger" depart="1401.95" departLane="best" from="-465376254#2" to="606078072#1"/>
    <trip id="veh109" type="veh_passenger" depart="1414.93" departLane="best" from="22972219#0" to="82654059#3"/>
    <trip id="veh110" type="veh_passenger" depart="1427.91" departLane="best" departSpeed="max" from="24914992" to="1101961735#1"/>
    <trip id="veh111" type="veh_passenger" depart="1440.89" departLane="best" from="4611698" to="-751595930"/>
    <trip id="veh112" type="veh_passenger" depart="1453.87" departLane="best" departSpeed="max" from="24914992" to="606078071#0"/>
    <trip id="veh113" type="veh_passenger" depart="1466.85" departLane="best" departSpeed="max" from="66071379#1" to="202156991"/>
    <trip id="veh114" type="veh_passenger" depart="1479.83" departLane="best" from="-339201177#0" to="-339201185"/>
    <trip id="veh115" type="veh_passenger" depart="1492.81" departLane="best" from="23809670#1" to="-51167934#1"/>
    <trip id="veh116" type="veh_passenger" depart="1505.79" departLane="best" from="156364556#1" to="541763974"/>
    <trip id="veh117" type="veh_passenger" depart="1518.77" departLane="best" from="-1101961674#3" to="4067932"/>
    <trip id="veh118" type="veh_passenger" depart="1531.76" departLane="best" from="340498982#0" to="171826984#2"/>
    <trip id="veh119" type="veh_passenger" depart="1544.74" departLane="best" from="-4402228" to="25294728#1"/>
    <trip id="veh120" type="veh_passenger" depart="1557.72" departLane="best" from="-137630045#0" to="490365295#0"/>
    <trip id="veh121" type="veh_passenger" depart="1570.70" departLane="best" departSpeed="max" from="606078065#0" to="171826984#2"/>
    <trip id="veh122" type="veh_passenger" depart="1583.68" departLane="best" from="-465376254#3" to="194962375#2"/>
    <trip id="veh123" type="veh_passenger" depart="1596.66" departLane="best" from="202817674#1" to="-194069450#1"/>
    <trip id="veh124" type="veh_passenger" depart="1609.64" departLane="best" from="-1101961674#2" to="-534588621#0"/>
    <trip id="veh125" type="veh_passenger" depart="1622.62" departLane="best" from="4610476#0" to="46140376#0"/>
    <trip id="veh126" type="veh_passenger" depart="1635.60" departLane="best" from="-51167934#3" to="15971189"/>
    <trip id="veh127" type="veh_passenger" depart="1648.58" departLane="best" from="448810728" to="490365295#0"/>
    <trip id="veh128" type="veh_passenger" depart="1661.57" departLane="best" from="-114667396#2" to="202157002#1"/>
    <trip id="veh130" type="veh_passenger" depart="1687.53" departLane="best" from="4610524#0" to="4773465#2"/>
    <trip id="veh131" type="veh_passenger" depart="1700.51" departLane="best" from="158023913#3" to="-339201185"/>
    <trip id="veh132" type="veh_passenger" depart="1713.49" departLane="best" departSpeed="max" from="1117432853#0" to="606078071#0"/>
    <trip id="veh133" type="veh_passenger" depart="1726.47" departLane="best" from="4610476#4" to="461526152#1"/>
    <trip id="veh134" type="veh_passenger" depart="1739.45" departLane="best" from="4610524#0" to="51167934#3"/>
    <trip id="veh135" type="veh_passenger" depart="1752.43" departLane="best" from="54048862#2" to="46140376#0"/>
    <trip id="veh136" type="veh_passenger" depart="1765.41" departLane="best" departSpeed="max" from="4610524#1" to="4610476#0"/>
    <trip id="veh137" type="veh_passenger" depart="1778.39" departLane="best" from="1173516145#1" to="1217865061#0"/>
    <trip id="veh138" type="veh_passenger" depart="1791.37" departLane="best" from="158023913#3" to="-316746323#3"/>
    <trip id="veh139" type="veh_passenger" depart="1804.36" departLane="best" departSpeed="max" from="1117432853#0" to="461526152#1"/>
    <trip id="veh140" type="veh_passenger" depart="1817.34" departLane="best" departSpeed="max" from="66071379#0" to="-6228081#1"/>
    <trip id="veh141" type="veh_passenger" depart="1830.32" departLane="best" from="24243092#1" to="-1126465845"/>
    <trip id="veh143" type="veh_passenger" depart="1856.28" departLane="best" from="606078065#1" to="-168940071#7"/>
    <trip id="veh144" type="veh_passenger" depart="1869.26" departLane="best" from="66071379#1" to="-23809670#0"/>
    <trip id="veh145" type="veh_passenger" depart="1882.24" departLane="best" departSpeed="max" from="66071379#0" to="51167934#2"/>
    <trip id="veh146" type="veh_passenger" depart="1895.22" departLane="best" departSpeed="max" from="-188914559" to="1151064403"/>
    <trip id="veh147" type="veh_passenger" depart="1908.20" departLane="best" from="202817674#4" to="168937986"/>
    <trip id="veh148" type="veh_passenger" depart="1921.18" departLane="best" from="1126246695#1" to="194962375#1"/>
    <trip id="veh149" type="veh_passenger" depart="1934.17" departLane="best" from="534588621#1" to="30720544#0"/>
    <trip id="veh151" type="veh_passenger" depart="1960.13" departLane="best" from="169195795#1" to="24243107"/>
    <trip id="veh152" type="veh_passenger" depart="1973.11" departLane="best" departSpeed="max" from="1123106898" to="34848160#2"/>
    <trip id="veh153" type="veh_passenger" depart="1986.09" departLane="best" departSpeed="max" from="24914992" to="1114798610#0"/>
    <trip id="veh154" type="veh_passenger" depart="1999.07" departLane="best" from="-1102369940#1" to="4611699#0"/>
    <trip id="veh155" type="veh_passenger" depart="2012.05" departLane="best" from="339201177#2" to="1077923225#0"/>
    <trip id="veh156" type="veh_passenger" depart="2025.03" departLane="best" from="-1101961674#3" to="1133992734#1"/>
    <trip id="veh157" type="veh_passenger" depart="2038.01" departLane="best" from="-114667396#0" to="-751595930"/>
    <trip id="veh158" type="veh_passenger" depart="2050.99" departLane="best" from="606078065#1" to="24913519#1"/>
    <trip id="veh159" type="veh_passenger" depart="2063.98" departLane="best" departSpeed="max" from="606078065#0" to="24913519#1"/>
    <trip id="veh160" type="veh_passenger" depart="2076.96" departLane="best" from="1079495669#1" to="171826984#2"/>
    <trip id="veh161" type="veh_passenger" depart="2089.94" departLane="best" from="1158584613" to="194962375#2"/>
    <trip id="veh162" type="veh_passenger" depart="2102.92" departLane="best" departSpeed="max" from="24914992" to="1198409426#2"/>
    <trip id="veh163" type="veh_passenger" depart="2115.90" departLane="best" departSpeed="max" from="1170522571" to="-43156728#1"/>
    <trip id="veh164" type="veh_passenger" depart="2128.88" departLane="best" from="1261128304" to="-534588621#0"/>
    <trip id="veh165" type="veh_passenger" depart="2141.86" departLane="best" from="4610476#0" to="-23121445#3"/>
    <trip id="veh166" type="veh_passenger" depart="2154.84" departLane="best" from="158023913#1" to="-168940071#2"/>
    <trip id="veh167" type="veh_passenger" depart="2167.82" departLane="best" from="23809670#1" to="1116360926#1"/>
    <trip id="veh168" type="veh_passenger" depart="2180.80" departLane="best" from="4611698" to="169195795#0"/>
    <trip id="veh169" type="veh_passenger" depart="2193.79" departLane="best" from="4611699#1" to="-4610374"/>
    <trip id="veh170" type="veh_passenger" depart="2206.77" departLane="best" from="-339201177#5" to="-111833185#0"/>
    <trip id="veh171" type="veh_passenger" depart="2219.75" departLane="best" from="507023458#1" to="120675240#3"/>
    <trip id="veh172" type="veh_passenger" depart="2232.73" departLane="best" from="507023458#1" to="-1171295120#1"/>
    <trip id="veh173" type="veh_passenger" depart="2245.71" departLane="best" departSpeed="max" from="1151064386#0" to="-202817674#4"/>
    <trip id="veh174" type="veh_passenger" depart="2258.69" departLane="best" from="-339201177#2" to="25294729#1"/>
    <trip id="veh176" type="veh_passenger" depart="2284.65" departLane="best" departSpeed="max" from="24914992" to="1101961674#4"/>
    <trip id="veh177" type="veh_passenger" depart="2297.63" departLane="best" from="35578559" to="38208961"/>
    <trip id="veh178" type="veh_passenger" depart="2310.61" departLane="best" departSpeed="max" from="-188914559" to="1149417521#1"/>
    <trip id="veh179" type="veh_passenger" depart="2323.60" departLane="best" departSpeed="max" from="-24243107" to="82654059#0"/>
    <trip id="veh180" type="veh_passenger" depart="2336.58" departLane="best" from="168942727#1" to="-1126465703#0"/>
    <trip id="veh181" type="veh_passenger" depart="2349.56" departLane="best" from="-51167934#3" to="4611699#0"/>
    <trip id="veh182" type="veh_passenger" depart="2362.54" departLane="best" from="1171295120#1" to="427637455"/>
    <trip id="veh183" type="veh_passenger" depart="2375.52" departLane="best" departSpeed="max" from="24914992" to="82654059#3"/>
    <trip id="veh184" type="veh_passenger" depart="2388.50" departLane="best" from="465376239" to="171826984#2"/>
    <trip id="veh185" type="veh_passenger" depart="2401.48" departLane="best" departSpeed="max" from="606078065#0" to="339201219"/>
    <trip id="veh186" type="veh_passenger" depart="2414.46" departLane="best" from="136571494#0" to="-51167934#0"/>
    <trip id="veh187" type="veh_passenger" depart="2427.44" departLane="best" from="-38208961" to="-168940071#6"/>
    <trip id="veh188" type="veh_passenger" depart="2440.42" departLane="best" from="23121445#5" to="-534588621#1"/>
    <trip id="veh190" type="veh_passenger" depart="2466.39" departLane="best" departSpeed="max" from="66071379#1" to="1102369942"/>
    <trip id="veh191" type="veh_passenger" depart="2479.37" departLane="best" departSpeed="max" from="194069450#0" to="-195397539"/>
    <trip id="veh192" type="veh_passenger" depart="2492.35" departLane="best" departSpeed="max" from="-4611693#3" to="25294729#1"/>
    <trip id="veh193" type="veh_passenger" depart="2505.33" departLane="best" from="-114667396#3" to="171826984#2"/>
    <trip id="veh194" type="veh_passenger" depart="2518.31" departLane="best" from="1151064386#1" to="54048862#2"/>
    <trip id="veh195" type="veh_passenger" depart="2531.29" departLane="best" from="195411605#0" to="25294729#1"/>
    <trip id="veh196" type="veh_passenger" depart="2544.27" departLane="best" departSpeed="max" from="51167934#0" to="35578576#3"/>
    <trip id="veh197" type="veh_passenger" depart="2557.25" departLane="best" from="1119854969#1" to="340498982#0"/>
    <trip id="veh198" type="veh_passenger" depart="2570.23" departLane="best" departSpeed="max" from="51167934#0" to="-743631784#0"/>
    <trip id="veh199" type="veh_passenger" depart="2583.21" departLane="best" departSpeed="max" from="1151064386#0" to="340498976#4"/>
    <trip id="veh200" type="veh_passenger" depart="2596.20" departLane="best" departSpeed="max" from="194069450#0" to="202156991"/>
    <trip id="veh201" type="veh_passenger" depart="2609.18" departLane="best" departSpeed="max" from="4610524#1" to="1151064403"/>
    <trip id="veh202" type="veh_passenger" depart="2622.16" departLane="best" from="1149417521#1" to="169999355#1"/>
    <trip id="veh203" type="veh_passenger" depart="2635.14" departLane="best" from="1117432853#1" to="24913519#1"/>
    <trip id="veh204" type="veh_passenger" depart="2648.12" departLane="best" from="-114667396#1" to="-23121445#0"/>
    <trip id="veh205" type="veh_passenger" depart="2661.10" departLane="best" from="-120675240#2" to="-194069450#1"/>
    <trip id="veh206" type="veh_passenger" depart="2674.08" departLane="best" from="23121445#2" to="-1119854969#0"/>
    <trip id="veh207" type="veh_passenger" depart="2687.06" departLane="best" departSpeed="max" from="1126465825" to="188386313#1"/>
    <trip id="veh208" type="veh_passenger" depart="2700.04" departLane="best" from="-1126465423" to="-23121445#0"/>
    <trip id="veh209" type="veh_passenger" depart="2713.02" departLane="best" from="195411605#0" to="1195359141"/>
    <trip id="veh213" type="veh_passenger" depart="2764.95" departLane="best" from="534588621#0" to="-1173516145#0"/>
    <trip id="veh214" type="veh_passenger" depart="2777.93" departLane="best" from="31313667#2" to="171826984#2"/>
    <trip id="veh215" type="veh_passenger" depart="2790.91" departLane="best" from="882389494#1" to="1119854969#1"/>
    <trip id="veh216" type="veh_passenger" depart="2803.89" departLane="best" departSpeed="max" from="24914992" to="42103020#0"/>
    <trip id="veh217" type="veh_passenger" depart="2816.87" departLane="best" departSpeed="max" from="24914992" to="340498988#0"/>
    <trip id="veh218" type="veh_passenger" depart="2829.85" departLane="best" from="284493291#0" to="-339201177#3"/>
    <trip id="veh219" type="veh_passenger" depart="2842.83" departLane="best" from="195397541#3" to="24243107"/>
    <trip id="veh220" type="veh_passenger" depart="2855.82" departLane="best" from="194073677#3" to="-43156728#1"/>
    <trip id="veh221" type="veh_passenger" depart="2868.80" departLane="best" from="30720544#0" to="-370359204#1"/>
    <trip id="veh222" type="veh_passenger" depart="2881.78" departLane="best" from="4611698" to="82654059#1"/>
    <trip id="veh223" type="veh_passenger" depart="2894.76" departLane="best" departSpeed="max" from="-188914559" to="-111833185#1"/>
    <trip id="veh224" type="veh_passenger" depart="2907.74" departLane="best" from="-1101961737" to="24913519#1"/>
    <trip id="veh225" type="veh_passenger" depart="2920.72" departLane="best" from="606078072#1" to="-202817674#2"/>
    <trip id="veh226" type="veh_passenger" depart="2933.70" departLane="best" from="-168942727#1" to="4067932"/>
    <trip id="veh227" type="veh_passenger" depart="2946.68" departLane="best" departSpeed="max" from="51167934#0" to="195411605#0"/>
    <trip id="veh228" type="veh_passenger" depart="2959.66" departLane="best" from="-195397539" to="82654059#3"/>
    <trip id="veh229" type="veh_passenger" depart="2972.64" departLane="best" from="4610362#0" to="1119837993"/>
    <trip id="veh230" type="veh_passenger" depart="2985.62" departLane="best" from="-4402228" to="1119935543#0"/>
    <trip id="veh232" type="veh_passenger" depart="3011.59" departLane="best" from="507023458#1" to="4610476#4"/>
    <trip id="veh233" type="veh_passenger" depart="3024.57" departLane="best" departSpeed="max" from="-188914559" to="82654059#0"/>
    <trip id="veh234" type="veh_passenger" depart="3037.55" departLane="best" from="23852053#1" to="4610480#1"/>
    <trip id="veh235" type="veh_passenger" depart="3050.53" departLane="best" from="31313667#1" to="1151064405#1"/>
    <trip id="veh236" type="veh_passenger" depart="3063.51" departLane="best" from="340498976#1" to="82654059#1"/>
    <trip id="veh238" type="veh_passenger" depart="3089.47" departLane="best" from="190447768#1" to="-751595928#1"/>
    <trip id="veh239" type="veh_passenger" depart="3102.45" departLane="best" from="1170522567#0" to="339201177#2"/>
    <trip id="veh240" type="veh_passenger" depart="3115.43" departLane="best" from="-541295974#0" to="251884680#0"/>
    <trip id="veh241" type="veh_passenger" depart="3128.42" departLane="best" from="465376239" to="1198409426#2"/>
    <trip id="veh243" type="veh_passenger" depart="3154.38" departLane="best" from="-1198409426#1" to="202156994#0"/>
    <trip id="veh244" type="veh_passenger" depart="3167.36" departLane="best" from="1126244314#0" to="169999355#1"/>
    <trip id="veh245" type="veh_passenger" depart="3180.34" departLane="best" departSpeed="max" from="51167934#0" to="-28251222#0"/>
    <trip id="veh246" type="veh_passenger" depart="3193.32" departLane="best" from="4412868#2" to="427637455"/>
    <trip id="veh247" type="veh_passenger" depart="3206.30" departLane="best" departSpeed="max" from="111833185#0" to="4773465#2"/>
    <trip id="veh248" type="veh_passenger" depart="3219.28" departLane="best" from="-15971189" to="327518240#1"/>
    <trip id="veh249" type="veh_passenger" depart="3232.26" departLane="best" from="156364556#1" to="340498988#0"/>
    <trip id="veh250" type="veh_passenger" depart="3245.24" departLane="best" from="284493291#0" to="-23121445#2"/>
    <trip id="veh251" type="veh_passenger" depart="3258.23" departLane="best" from="156364570#2" to="42103020#0"/>
    <trip id="veh252" type="veh_passenger" depart="3271.21" departLane="best" from="-168940071#3" to="-4412868#1"/>