<?xml version="1.0" encoding="UTF-8"?>

<!-- generated on 2024-05-03 11:17:08.780813 by osmWebWizard.py v1_18_0+0000-03ecfdea036
<configuration>
    <net-file value="C:\Users\hsarw\OneDrive\Desktop\FYP\basic_app\2024-05-03-11-17-02\osm.net.xml.gz"/>
    <output-trip-file value="C:\Users\hsarw\OneDrive\Desktop\FYP\basic_app\2024-05-03-11-17-02\osm.passenger.trips.xml"/>
    <route-file value="C:\Users\hsarw\OneDrive\Desktop\FYP\basic_app\2024-05-03-11-17-02\osm.passenger.rou.xml"/>
    <prefix value="veh"/>
    <trip-attributes value="departLane=&quot;best&quot;"/>
    <fringe-start-attributes value="departSpeed=&quot;max&quot;"/>
    <vehicle-class value="passenger"/>
    <lanes value="True"/>
    <fringe-factor value="5"/>
    <allow-fringe.min-length value="1000.0"/>
    <via-edge-types value="highway.motorway,highway.motorway_link,highway.trunk_link,highway.primary_link,highway.secondary_link,highway.tertiary_link"/>
    <min-distance value="300.0"/>
    <min-distance.fringe value="10.0"/>
    <remove-loops value="True"/>
    <validate value="True"/>
    <insertion-density value="12.0"/>
</configuration>
-->

<!-- generated on 2024-05-03 11:17:08 by Eclipse SUMO duarouter Version 1.18.0
<configuration xmlns:xsi="http://www.w3.org/2001/XMLSchema-instance" xsi:noNamespaceSchemaLocation="http://sumo.dlr.de/xsd/duarouterConfiguration.xsd">

    <input>
        <net-file value="C:\Users\hsarw\OneDrive\Desktop\FYP\basic_app\2024-05-03-11-17-02\osm.net.xml.gz"/>
        <route-files value="C:\Users\hsarw\OneDrive\Desktop\FYP\basic_app\2024-05-03-11-17-02\osm.passenger.trips.xml"/>
    </input>

    <output>
        <output-file value="C:\Users\hsarw\OneDrive\Desktop\FYP\basic_app\2024-05-03-11-17-02\osm.passenger.trips.xml.tmp"/>
        <alternatives-output value="NUL"/>
        <write-trips value="true"/>
    </output>

    <processing>
        <remove-loops value="true"/>
    </processing>

    <time>
        <begin value="0.0"/>
        <end value="3600.0"/>
    </time>

    <report>
        <no-warnings value="true"/>
        <ignore-errors value="true"/>
        <no-step-log value="true"/>
    </report>

</configuration>
-->

<routes xmlns:xsi="http://www.w3.org/2001/XMLSchema-instance" xsi:noNamespaceSchemaLocation="http://sumo.dlr.de/xsd/routes_file.xsd">
    <vType id="veh_passenger" vClass="passenger"/>
    <trip id="veh0" type="veh_passenger" depart="0.00" departLane="best" departSpeed="max" from="1156812418" to="1154078871"/>
    <trip id="veh1" type="veh_passenger" depart="5.62" departLane="best" departSpeed="max" from="-1220638512" to="-23012592#0"/>
    <trip id="veh2" type="veh_passenger" depart="11.23" departLane="best" from="563565118#1" to="-1156812418"/>
    <trip id="veh3" type="veh_passenger" depart="16.85" departLane="best" from="-563565118#7" to="-1154078874"/>
    <trip id="veh4" type="veh_passenger" depart="22.46" departLane="best" departSpeed="max" from="-1220616725#2" to="1156802696"/>
    <trip id="veh5" type="veh_passenger" depart="28.08" departLane="best" departSpeed="max" from="-1154078872#2" to="-1220616733"/>
    <trip id="veh6" type="veh_passenger" depart="33.70" departLane="best" departSpeed="max" from="1220616651#0" to="1156807891#1"/>
    <trip id="veh7" type="veh_passenger" depart="39.31" departLane="best" departSpeed="max" from="-1220616725#2" to="1160554561"/>
    <trip id="veh8" type="veh_passenger" depart="44.93" departLane="best" from="-23012592#4" to="-1154068135"/>
    <trip id="veh9" type="veh_passenger" depart="50.54" departLane="best" from="-23012592#2" to="-1220616730#1"/>
    <trip id="veh10" type="veh_passenger" depart="56.16" departLane="best" from="-23012592#4" to="-1220616728"/>
    <trip id="veh11" type="veh_passenger" depart="61.78" departLane="best" from="563565128#1" to="-563565118#6"/>
    <trip id="veh12" type="veh_passenger" depart="67.39" departLane="best" departSpeed="max" from="-1156807891#1" to="-1220616651#0"/>
    <trip id="veh13" type="veh_passenger" depart="73.01" departLane="best" departSpeed="max" from="450277815" to="1220616652#2"/>
    <trip id="veh14" type="veh_passenger" depart="78.62" departLane="best" from="23012592#3" to="1220638512"/>
    <trip id="veh15" type="veh_passenger" depart="84.24" departLane="best" departSpeed="max" from="-563565133#8" to="-563565133#3"/>
    <trip id="veh16" type="veh_passenger" depart="89.86" departLane="best" from="-450504042#2" to="1156807891#1"/>
    <trip id="veh17" type="veh_passenger" depart="95.47" departLane="best" from="-38920464#2" to="1220616677"/>
    <trip id="veh18" type="veh_passenger" depart="101.09" departLane="best" from="-450504042#3" to="1156812424#1"/>
    <trip id="veh19" type="veh_passenger" depart="106.70" departLane="best" departSpeed="max" from="1220616709#0" to="-1154078876#0"/>
    <trip id="veh20" type="veh_passenger" depart="112.32" departLane="best" departSpeed="max" from="-1220616727" to="-450277815"/>
    <trip id="veh21" type="veh_passenger" depart="117.94" departLane="best" departSpeed="max" from="-1156802701#3" to="-23012592#1"/>
    <trip id="veh22" type="veh_passenger" depart="123.55" departLane="best" departSpeed="max" from="-1156807891#1" to="-38920464#6"/>
    <trip id="veh23" type="veh_passenger" depart="129.17" departLane="best" departSpeed="max" from="1156812418" to="563565124#1"/>
    <trip id="veh24" type="veh_passenger" depart="134.78" departLane="best" from="-38920464#7" to="-154903204#2"/>
    <trip id="veh25" type="veh_passenger" depart="140.40" departLane="best" departSpeed="max" from="-1220636146" to="563565129#0"/>
    <trip id="veh26" type="veh_passenger" depart="146.02" departLane="best" from="-1156812424#0" to="1220616676"/>
    <trip id="veh27" type="veh_passenger" depart="151.63" departLane="best" departSpeed="max" from="-1220616709#1" to="1220638512"/>
    <trip id="veh28" type="veh_passenger" depart="157.25" departLane="best" departSpeed="max" from="-1220616677" to="-563565126#0"/>
    <trip id="veh29" type="veh_passenger" depart="162.86" departLane="best" departSpeed="max" from="1154078869" to="1220616727"/>
    <trip id="veh30" type="veh_passenger" depart="168.48" departLane="best" departSpeed="max" from="450277815" to="23012592#12"/>
    <trip id="veh31" type="veh_passenger" depart="174.10" departLane="best" departSpeed="max" from="-1220616727" to="-1154078875#0"/>
    <trip id="veh32" type="veh_passenger" depart="179.71" departLane="best" from="23012592#10" to="-38920464#2"/>
    <trip id="veh33" type="veh_passenger" depart="185.33" departLane="best" from="-1220616725#1" to="563565129#4"/>
    <trip id="veh34" type="veh_passenger" depart="190.94" departLane="best" departSpeed="max" from="1220616651#0" to="-563565128#1"/>
    <trip id="veh35" type="veh_passenger" depart="196.56" departLane="best" from="563565122" to="1154078870#2"/>
    <trip id="veh36" type="veh_passenger" depart="202.18" departLane="best" departSpeed="max" from="-1220636146" to="-23012592#3"/>
    <trip id="veh37" type="veh_passenger" depart="207.79" departLane="best" departSpeed="max" from="1154078869" to="38920464#0"/>
    <trip id="veh38" type="veh_passenger" depart="213.41" departLane="best" from="1154078874" to="563565123#3"/>
    <trip id="veh39" type="veh_passenger" depart="219.02" departLane="best" from="-563565116#0" to="154903209#1"/>
    <trip id="veh40" type="veh_passenger" depart="224.64" departLane="best" from="-563566627#1" to="1156802696"/>
    <trip id="veh41" type="veh_passenger" depart="230.26" departLane="best" from="-1156807891#0" to="-1154078876#1"/>
    <trip id="veh42" type="veh_passenger" depart="235.87" departLane="best" departSpeed="max" from="-1156812409" to="1220616709#1"/>
    <trip id="veh43" type="veh_passenger" depart="241.49" departLane="best" from="23012592#1" to="563565133#2"/>
    <trip id="veh44" type="veh_passenger" depart="247.10" departLane="best" from="-1156802697" to="-563565126#1"/>
    <trip id="veh45" type="veh_passenger" depart="252.72" departLane="best" from="-563566627#1" to="1156802701#3"/>
    <trip id="veh46" type="veh_passenger" depart="258.34" departLane="best" from="563565132#0" to="563565116#4"/>
    <trip id="veh47" type="veh_passenger" depart="263.95" departLane="best" from="-1154068136#1" to="1220636146"/>
    <trip id="veh48" type="veh_passenger" depart="269.57" departLane="best" departSpeed="max" from="1220616680#0" to="1156802702#1"/>
    <trip id="veh49" type="veh_passenger" depart="275.18" departLane="best" departSpeed="max" from="-1220636146" to="1220616710#1"/>
    <trip id="veh50" type="veh_passenger" depart="280.80" departLane="best" departSpeed="max" from="-1156812409" to="563566627#1"/>
    <trip id="veh51" type="veh_passenger" depart="286.42" departLane="best" departSpeed="max" from="-563565124#2" to="563565130"/>
    <trip id="veh52" type="veh_passenger" depart="292.03" departLane="best" from="563565131" to="-1220616730#0"/>
    <trip id="veh53" type="veh_passenger" depart="297.65" departLane="best" from="-154903209#0" to="1220616710#1"/>
    <trip id="veh54" type="veh_passenger" depart="303.26" departLane="best" from="-1156802697" to="1220616725#1"/>
    <trip id="veh55" type="veh_passenger" depart="308.88" departLane="best" from="154903203" to="1156807889"/>
    <trip id="veh56" type="veh_passenger" depart="314.50" departLane="best" from="-154903209#1" to="1156802701#3"/>
    <trip id="veh57" type="veh_passenger" depart="320.11" departLane="best" from="1154068134#0" to="563565116#4"/>
    <trip id="veh58" type="veh_passenger" depart="325.73" departLane="best" departSpeed="max" from="-1154078872#2" to="-563565127#2"/>
    <trip id="veh59" type="veh_passenger" depart="331.34" departLane="best" departSpeed="max" from="-154903209#2" to="-1156802701#0"/>
    <trip id="veh60" type="veh_passenger" depart="336.96" departLane="best" from="563565116#0" to="563565129#4"/>
    <trip id="veh61" type="veh_passenger" depart="342.58" departLane="best" from="-1156802702#1" to="-1154078876#1"/>
    <trip id="veh62" type="veh_passenger" depart="348.19" departLane="best" from="-1156802701#2" to="154903209#2"/>
    <trip id="veh63" type="veh_passenger" depart="353.81" departLane="best" from="154903204#0" to="-1220616680#0"/>
    <trip id="veh64" type="veh_passenger" depart="359.42" departLane="best" from="-563565128#0" to="1156807891#1"/>
    <trip id="veh65" type="veh_passenger" depart="365.04" departLane="best" departSpeed="max" from="-1220636146" to="-563565118#3"/>
    <trip id="veh66" type="veh_passenger" depart="370.66" departLane="best" from="-563565119#0" to="-154903204#3"/>
    <trip id="veh67" type="veh_passenger" depart="376.27" departLane="best" from="-563566627#0" to="1220638512"/>
    <trip id="veh68" type="veh_passenger" depart="381.89" departLane="best" from="-563566627#0" to="1220616724#0"/>
    <trip id="veh69" type="veh_passenger" depart="387.50" departLane="best" from="563565123#1" to="1156802702#1"/>
    <trip id="veh70" type="veh_passenger" depart="393.12" departLane="best" departSpeed="max" from="-1156812424#1" to="-23012592#0"/>
    <trip id="veh71" type="veh_passenger" depart="398.74" departLane="best" from="-23012592#3" to="1160554561"/>
    <trip id="veh72" type="veh_passenger" depart="404.35" departLane="best" departSpeed="max" from="-1220616727" to="-23012592#0"/>
    <trip id="veh73" type="veh_passenger" depart="409.97" departLane="best" departSpeed="max" from="-1156802701#3" to="1220616709#1"/>
    <trip id="veh74" type="veh_passenger" depart="415.58" departLane="best" departSpeed="max" from="-1220616727" to="563565124#2"/>
    <trip id="veh75" type="veh_passenger" depart="421.20" departLane="best" from="154903204#4" to="1156802702#0"/>
    <trip id="veh76" type="veh_passenger" depart="426.82" departLane="best" departSpeed="max" from="-1220616725#2" to="-1220616680#0"/>
    <trip id="veh77" type="veh_passenger" depart="432.43" departLane="best" departSpeed="max" from="563565126#0" to="1156812424#1"/>
    <trip id="veh78" type="veh_passenger" depart="438.05" departLane="best" from="563565127#2" to="23012592#13"/>
    <trip id="veh79" type="veh_passenger" depart="443.66" departLane="best" from="-23012592#3" to="-1220616731"/>
    <trip id="veh80" type="veh_passenger" depart="449.28" departLane="best" departSpeed="max" from="-1156807891#1" to="563565133#7"/>
    <trip id="veh81" type="veh_passenger" depart="454.90" departLane="best" from="-563565119#0" to="1154078872#0"/>
    <trip id="veh82" type="veh_passenger" depart="460.51" departLane="best" from="450504042#3" to="23012592#4"/>
    <trip id="veh83" type="veh_passenger" depart="466.13" departLane="best" departSpeed="max" from="-1220616710#1" to="1154068136#0"/>
    <trip id="veh84" type="veh_passenger" depart="471.74" departLane="best" from="-563565118#7" to="38920464#7"/>
    <trip id="veh85" type="veh_passenger" depart="477.36" departLane="best" departSpeed="max" from="-1220616732#1" to="563565127#0"/>
    <trip id="veh86" type="veh_passenger" depart="482.98" departLane="best" from="-1154068135" to="1154078883#0"/>
    <trip id="veh87" type="veh_passenger" depart="488.59" departLane="best" from="-563566627#2" to="-450504042#2"/>
    <trip id="veh88" type="veh_passenger" depart="494.21" departLane="best" departSpeed="max" from="450277815" to="-1220616729#0"/>
    <trip id="veh89" type="veh_passenger" depart="499.82" departLane="best" from="-563565129#3" to="-154903204#4"/>
    <trip id="veh90" type="veh_passenger" depart="505.44" departLane="best" from="-563565116#1" to="-1156802701#0"/>
    <trip id="veh91" type="veh_passenger" depart="511.06" departLane="best" from="-450504042#2" to="563565133#8"/>
    <trip id="veh92" type="veh_passenger" depart="516.67" departLane="best" departSpeed="max" from="-1220636146" to="23012592#13"/>
    <trip id="veh93" type="veh_passenger" depart="522.29" departLane="best" departSpeed="max" from="-563565124#2" to="563565133#3"/>
    <trip id="veh94" type="veh_passenger" depart="527.90" departLane="best" from="563565128#1" to="563566627#1"/>
    <trip id="veh95" type="veh_passenger" depart="533.52" departLane="best" from="1154068136#1" to="1220636146"/>
    <trip id="veh96" type="veh_passenger" depart="539.14" departLane="best" from="-1220616652#3" to="450504042#1"/>
    <trip id="veh97" type="veh_passenger" depart="544.75" departLane="best" from="563565131" to="1156812424#1"/>
    <trip id="veh98" type="veh_passenger" depart="550.37" departLane="best" from="-563566627#2" to="154903204#3"/>
    <trip id="veh99" type="veh_passenger" depart="555.98" departLane="best" departSpeed="max" from="-1156802696" to="1160554561"/>
    <trip id="veh100" type="veh_passenger" depart="561.60" departLane="best" departSpeed="max" from="-1220616677" to="-563565132#1"/>
    <trip id="veh101" type="veh_passenger" depart="567.22" departLane="best" departSpeed="max" from="-1156802701#3" to="-1220616731"/>
    <trip id="veh102" type="veh_passenger" depart="572.83" departLane="best" departSpeed="max" from="1154078875#0" to="1220616725#2"/>
    <trip id="veh103" type="veh_passenger" depart="578.45" departLane="best" departSpeed="max" from="-1220616727" to="1220616652#3"/>
    <trip id="veh104" type="veh_passenger" depart="584.06" departLane="best" from="563565118#1" to="23012592#3"/>
    <trip id="veh105" type="veh_passenger" depart="589.68" departLane="best" departSpeed="max" from="1154078875#0" to="1220616677"/>
    <trip id="veh106" type="veh_passenger" depart="595.30" departLane="best" from="-563565118#6" to="1160554561"/>
    <trip id="veh107" type="veh_passenger" depart="600.91" departLane="best" from="-563565133#6" to="563565129#0"/>
    <trip id="veh108" type="veh_passenger" depart="606.53" departLane="best" departSpeed="max" from="-1220616724#1" to="1220636146"/>
    <trip id="veh109" type="veh_passenger" depart="612.14" departLane="best" from="1220616729#1" to="-563565128#1"/>
    <trip id="veh110" type="veh_passenger" depart="617.76" departLane="best" from="-1220616652#1" to="450504042#3"/>
    <trip id="veh111" type="veh_passenger" depart="623.38" departLane="best" from="23012592#10" to="-154903204#4"/>
    <trip id="veh112" type="veh_passenger" depart="628.99" departLane="best" departSpeed="max" from="-1156802701#3" to="1154078870#2"/>
    <trip id="veh113" type="veh_passenger" depart="634.61" departLane="best" departSpeed="max" from="-1156802701#3" to="-154903204#4"/>
    <trip id="veh114" type="veh_passenger" depart="640.22" departLane="best" departSpeed="max" from="-1220636146" to="563565128#1"/>
    <trip id="veh115" type="veh_passenger" depart="645.84" departLane="best" from="-38920464#7" to="-1220616728"/>
    <trip id="veh116" type="veh_passenger" depart="651.46" departLane="best" from="-38920464#4" to="1220616732#1"/>
    <trip id="veh117" type="veh_passenger" depart="657.07" departLane="best" departSpeed="max" from="1156802701#0" to="563565133#8"/>
    <trip id="veh118" type="veh_passenger" depart="662.69" departLane="best" departSpeed="max" from="1220616651#0" to="-1154068136#0"/>
    <trip id="veh119" type="veh_passenger" depart="668.30" departLane="best" from="23012592#7" to="450504042#3"/>
    <trip id="veh120" type="veh_passenger" depart="673.92" departLane="best" from="1220616651#1" to="-563565129#2"/>
    <trip id="veh121" type="veh_passenger" depart="679.54" departLane="best" departSpeed="max" from="-1160554561" to="1220616652#1"/>
    <trip id="veh122" type="veh_passenger" depart="685.15" departLane="best" departSpeed="max" from="-1156812409" to="1156807891#1"/>
    <trip id="veh123" type="veh_passenger" depart="690.77" departLane="best" departSpeed="max" from="-1220638512" to="1220616652#2"/>
    <trip id="veh124" type="veh_passenger" depart="696.38" departLane="best" departSpeed="max" from="1220616728" to="-154903204#0"/>
    <trip id="veh125" type="veh_passenger" depart="702.00" departLane="best" from="1156807891#0" to="-38920464#0"/>
    <trip id="veh126" type="veh_passenger" depart="707.62" departLane="best" departSpeed="max" from="-563565129#4" to="563565124#2"/>
    <trip id="veh127" type="veh_passenger" depart="713.23" departLane="best" departSpeed="max" from="450277815" to="1156812424#0"/>
    <trip id="veh128" type="veh_passenger" depart="718.85" departLane="best" from="-563565119#0" to="38920464#6"/>
    <trip id="veh129" type="veh_passenger" depart="724.46" departLane="best" from="-1154068134#1" to="23012592#10"/>
    <trip id="veh130" type="veh_passenger" depart="730.08" departLane="best" departSpeed="max" from="1156812418" to="-38920464#0"/>
    <trip id="veh131" type="veh_passenger" depart="735.70" departLane="best" departSpeed="max" from="1220616730#0" to="1156807891#1"/>
    <trip id="veh132" type="veh_passenger" depart="741.31" departLane="best" from="-563565119#1" to="-1154068136#1"/>
    <trip id="veh133" type="veh_passenger" depart="746.93" departLane="best" departSpeed="max" from="-1156802701#3" to="563565119#1"/>
    <trip id="veh134" type="veh_passenger" depart="752.54" departLane="best" from="563565118#7" to="1156807891#1"/>
    <trip id="veh135" type="veh_passenger" depart="758.16" departLane="best" from="38920464#5" to="1160554561"/>
    <trip id="veh136" type="veh_passenger" depart="763.78" departLane="best" from="-1220616652#0" to="-1220616680#0"/>
    <trip id="veh137" type="veh_passenger" depart="769.39" departLane="best" departSpeed="max" from="-154903209#2" to="-563565123#3"/>
    <trip id="veh138" type="veh_passenger" depart="775.01" departLane="best" from="23012592#10" to="563565116#4"/>
    <trip id="veh139" type="veh_passenger" depart="780.62" departLane="best" from="563565118#5" to="-154903204#2"/>
    <trip id="veh140" type="veh_passenger" depart="786.24" departLane="best" departSpeed="max" from="-1220616732#1" to="-1220616651#0"/>
    <trip id="veh141" type="veh_passenger" depart="791.86" departLane="best" from="-154903209#1" to="563565119#1"/>
    <trip id="veh142" type="veh_passenger" depart="797.47" departLane="best" from="-563565116#4" to="1220616677"/>
    <trip id="veh143" type="veh_passenger" depart="803.09" departLane="best" from="-450504042#5" to="563565133#5"/>
    <trip id="veh144" type="veh_passenger" depart="808.70" departLane="best" from="23012592#5" to="563565119#1"/>
    <trip id="veh145" type="veh_passenger" depart="814.32" departLane="best" departSpeed="max" from="-1154078872#2" to="1220638512"/>
    <trip id="veh146" type="veh_passenger" depart="819.94" departLane="best" departSpeed="max" from="-23012592#13" to="563565128#0"/>
    <trip id="veh147" type="veh_passenger" depart="825.55" departLane="best" from="-23012592#13" to="563565117"/>
    <trip id="veh148" type="veh_passenger" depart="831.17" departLane="best" from="23012592#5" to="-38920464#2"/>
    <trip id="veh149" type="veh_passenger" depart="836.78" departLane="best" departSpeed="max" from="23012592#0" to="-1220616651#2"/>
    <trip id="veh150" type="veh_passenger" depart="842.40" departLane="best" departSpeed="max" from="-1220616725#2" to="38920464#3"/>
    <trip id="veh151" type="veh_passenger" depart="848.02" departLane="best" from="-23012592#10" to="-23012592#0"/>
    <trip id="veh152" type="veh_passenger" depart="853.63" departLane="best" departSpeed="max" from="-1154078872#2" to="-1220616731"/>
    <trip id="veh153" type="veh_passenger" depart="859.25" departLane="best" departSpeed="max" from="-23012592#13" to="563565117"/>
    <trip id="veh154" type="veh_passenger" depart="864.86" departLane="best" from="563565130" to="38920464#7"/>
    <trip id="veh155" type="veh_passenger" depart="870.48" departLane="best" departSpeed="max" from="1156812418" to="-563565129#2"/>
    <trip id="veh156" type="veh_passenger" depart="876.10" departLane="best" from="-563565133#1" to="1156802702#1"/>
    <trip id="veh157" type="veh_passenger" depart="881.71" departLane="best" departSpeed="max" from="563565126#0" to="1220616652#1"/>
    <trip id="veh158" type="veh_passenger" depart="887.33" departLane="best" from="563565132#0" to="-1220616730#0"/>
    <trip id="veh159" type="veh_passenger" depart="892.94" departLane="best" departSpeed="max" from="-1156812409" to="563566626"/>
    <trip id="veh160" type="veh_passenger" depart="898.56" departLane="best" from="1220616729#0" to="450504043#3"/>
    <trip id="veh161" type="veh_passenger" depart="904.18" departLane="best" from="-1154078883#0" to="1156802696"/>
    <trip id="veh162" type="veh_passenger" depart="909.79" departLane="best" from="-450504042#4" to="1156812424#1"/>
    <trip id="veh163" type="veh_passenger" depart="915.41" departLane="best" from="1154068134#0" to="563565127#1"/>
    <trip id="veh164" type="veh_passenger" depart="921.02" departLane="best" from="-563566627#0" to="1220636146"/>
    <trip id="veh165" type="veh_passenger" depart="926.64" departLane="best" from="38920464#4" to="-1156802701#2"/>
    <trip id="veh166" type="veh_passenger" depart="932.26" departLane="best" from="1220616651#2" to="-563565118#2"/>
    <trip id="veh167" type="veh_passenger" depart="937.87" departLane="best" from="-23012592#1" to="-450504043#2"/>
    <trip id="veh168" type="veh_passenger" depart="943.49" departLane="best" departSpeed="max" from="-154903209#2" to="-563565131"/>
    <trip id="veh169" type="veh_passenger" depart="949.10" departLane="best" departSpeed="max" from="-1156812424#1" to="563565133#1"/>
    <trip id="veh170" type="veh_passenger" depart="954.72" departLane="best" departSpeed="max" from="563565126#0" to="1220616725#2"/>
    <trip id="veh171" type="veh_passenger" depart="960.34" departLane="best" from="563565118#7" to="1220616677"/>
    <trip id="veh172" type="veh_passenger" depart="965.95" departLane="best" from="-154903209#1" to="1156807891#1"/>
    <trip id="veh173" type="veh_passenger" depart="971.57" departLane="best" from="-1154068134#0" to="-450277815"/>
    <trip id="veh174" type="veh_passenger" depart="977.18" departLane="best" from="-563565119#1" to="1160554561"/>
    <trip id="veh175" type="veh_passenger" depart="982.80" departLane="best" from="563565123#3" to="-154903204#4"/>
    <trip id="veh176" type="veh_passenger" depart="988.42" departLane="best" from="563565127#2" to="563565124#0"/>
    <trip id="veh177" type="veh_passenger" depart="994.03" departLane="best" from="23012592#10" to="-1220616729#1"/>
    <trip id="veh178" type="veh_passenger" depart="999.65" departLane="best" from="1156807889" to="-563565118#5"/>
    <trip id="veh179" type="veh_passenger" depart="1005.26" departLane="best" from="23012592#8" to="-154903204#4"/>
    <trip id="veh180" type="veh_passenger" depart="1010.88" departLane="best" from="-1220616652#1" to="-23012592#0"/>
    <trip id="veh181" type="veh_passenger" depart="1016.50" departLane="best" from="-1220616732#0" to="1154078872#2"/>
    <trip id="veh182" type="veh_passenger" depart="1022.11" departLane="best" departSpeed="max" from="450277815" to="1156802702#1"/>
    <trip id="veh183" type="veh_passenger" depart="1027.73" departLane="best" departSpeed="max" from="-563565129#4" to="23012592#2"/>
    <trip id="veh184" type="veh_passenger" depart="1033.34" departLane="best" departSpeed="max" from="1220616651#0" to="1154068135"/>
    <trip id="veh185" type="veh_passenger" depart="1038.96" departLane="best" departSpeed="max" from="1220616731" to="23012592#1"/>
    <trip id="veh186" type="veh_passenger" depart="1044.58" departLane="best" departSpeed="max" from="-1156812409" to="563565133#3"/>
    <trip id="veh187" type="veh_passenger" depart="1050.19" departLane="best" from="-563565133#3" to="1154078883#0"/>
    <trip id="veh188" type="veh_passenger" depart="1055.81" departLane="best" departSpeed="max" from="-1220616732#1" to="450504043#3"/>
    <trip id="veh189" type="veh_passenger" depart="1061.42" departLane="best" departSpeed="max" from="-563565124#2" to="23012592#7"/>
    <trip id="veh190" type="veh_passenger" depart="1067.04" departLane="best" from="-1220616651#3" to="563565133#8"/>
    <trip id="veh191" type="veh_passenger" depart="1072.66" departLane="best" from="563565118#1" to="1220616677"/>
    <trip id="veh192" type="veh_passenger" depart="1078.27" departLane="best" departSpeed="max" from="1220616728" to="1156802696"/>
    <trip id="veh193" type="veh_passenger" depart="1083.89" departLane="best" from="38920464#3" to="1156807891#1"/>
    <trip id="veh194" type="veh_passenger" depart="1089.50" departLane="best" from="563565118#5" to="-154903204#1"/>
    <trip id="veh195" type="veh_passenger" depart="1095.12" departLane="best" from="-563565128#0" to="-23012592#8"/>
    <trip id="veh196" type="veh_passenger" depart="1100.74" departLane="best" departSpeed="max" from="-1220616732#1" to="1220616710#0"/>
    <trip id="veh197" type="veh_passenger" depart="1106.35" departLane="best" from="154903204#0" to="1156802701#3"/>
    <trip id="veh198" type="veh_passenger" depart="1111.97" departLane="best" from="-1156802702#0" to="-38920464#5"/>
    <trip id="veh199" type="veh_passenger" depart="1117.58" departLane="best" departSpeed="max" from="-1156802701#3" to="-450277815"/>
    <trip id="veh200" type="veh_passenger" depart="1123.20" departLane="best" departSpeed="max" from="-1220638512" to="563565116#1"/>
    <trip id="veh201" type="veh_passenger" depart="1128.82" departLane="best" from="-563566627#1" to="-1220616709#0"/>
    <trip id="veh202" type="veh_passenger" depart="1134.43" departLane="best" departSpeed="max" from="-1220616727" to="-1220616729#1"/>
    <trip id="veh203" type="veh_passenger" depart="1140.05" departLane="best" from="-1220616710#0" to="-1156802701#0"/>
    <trip id="veh204" type="veh_passenger" depart="1145.66" departLane="best" from="563565118#0" to="1156807891#1"/>
    <trip id="veh205" type="veh_passenger" depart="1151.28" departLane="best" from="563565118#3" to="-154903204#1"/>
    <trip id="veh206" type="veh_passenger" depart="1156.90" departLane="best" from="-563565118#6" to="563565124#2"/>
    <trip id="veh207" type="veh_passenger" depart="1162.51" departLane="best" from="-1154078872#0" to="-1220616729#1"/>
    <trip id="veh208" type="veh_passenger" depart="1168.13" departLane="best" from="450504042#1" to="154903209#2"/>
    <trip id="veh209" type="veh_passenger" depart="1173.74" departLane="best" from="-450504042#2" to="1154068135"/>
    <trip id="veh210" type="veh_passenger" depart="1179.36" departLane="best" from="-23012592#9" to="154903209#0"/>
    <trip id="veh211" type="veh_passenger" depart="1184.98" departLane="best" from="1154068134#0" to="1220616652#2"/>
    <trip id="veh212" type="veh_passenger" depart="1190.59" departLane="best" departSpeed="max" from="-1220616725#2" to="154903209#1"/>
    <trip id="veh213" type="veh_passenger" depart="1196.21" departLane="best" from="563565121" to="1154078874"/>
    <trip id="veh214" type="veh_passenger" depart="1201.82" departLane="best" from="-23012592#2" to="1220616725#2"/>
    <trip id="veh215" type="veh_passenger" depart="1207.44" departLane="best" from="-563565116#4" to="-1220616728"/>
    <trip id="veh216" type="veh_passenger" depart="1213.06" departLane="best" from="-563565127#0" to="-1220616680#0"/>
    <trip id="veh217" type="veh_passenger" depart="1218.67" departLane="best" from="1156802701#1" to="1154078872#0"/>
    <trip id="veh218" type="veh_passenger" depart="1224.29" departLane="best" from="-450504043#2" to="1156812409"/>
    <trip id="veh219" type="veh_passenger" depart="1229.90" departLane="best" departSpeed="max" from="-1154078872#2" to="1220616710#1"/>
    <trip id="veh220" type="veh_passenger" depart="1235.52" departLane="best" departSpeed="max" from="-1160554561" to="1154078870#2"/>
    <trip id="veh221" type="veh_passenger" depart="1241.14" departLane="best" departSpeed="max" from="-1154078883#1" to="-563565126#0"/>
    <trip id="veh222" type="veh_passenger" depart="1246.75" departLane="best" from="-1220616725#1" to="-563565118#0"/>
    <trip id="veh223" type="veh_passenger" depart="1252.37" departLane="best" departSpeed="max" from="1220616731" to="-450504042#1"/>