<?xml version="1.0" encoding="UTF-8"?>

<!-- generated on 2024-05-03 10:56:36.502443 by osmWebWizard.py v1_18_0+0000-03ecfdea036
<configuration>
    <net-file value="C:\Users\hsarw\OneDrive\Desktop\FYP\basic_app\2024-05-03-10-56-31\osm.net.xml.gz"/>
    <output-trip-file value="C:\Users\hsarw\OneDrive\Desktop\FYP\basic_app\2024-05-03-10-56-31\osm.passenger.trips.xml"/>
    <route-file value="C:\Users\hsarw\OneDrive\Desktop\FYP\basic_app\2024-05-03-10-56-31\osm.passenger.rou.xml"/>
    <prefix value="veh"/>
    <trip-attributes value="departLane=&quot;best&quot;"/>
    <fringe-start-attributes value="departSpeed=&quot;max&quot;"/>
    <vehicle-class value="passenger"/>
    <lanes value="True"/>
    <fringe-factor value="5"/>
    <allow-fringe.min-length value="1000.0"/>
    <via-edge-types value="highway.motorway,highway.motorway_link,highway.trunk_link,highway.primary_link,highway.secondary_link,highway.tertiary_link"/>
    <min-distance value="300.0"/>
    <min-distance.fringe value="10.0"/>
    <remove-loops value="True"/>
    <validate value="True"/>
    <insertion-density value="12.0"/>
</configuration>
-->

<!-- generated on 2024-05-03 10:56:36 by Eclipse SUMO duarouter Version 1.18.0
<configuration xmlns:xsi="http://www.w3.org/2001/XMLSchema-instance" xsi:noNamespaceSchemaLocation="http://sumo.dlr.de/xsd/duarouterConfiguration.xsd">

    <input>
        <net-file value="C:\Users\hsarw\OneDrive\Desktop\FYP\basic_app\2024-05-03-10-56-31\osm.net.xml.gz"/>
        <route-files value="C:\Users\hsarw\OneDrive\Desktop\FYP\basic_app\2024-05-03-10-56-31\osm.passenger.trips.xml"/>
    </input>

    <output>
        <output-file value="C:\Users\hsarw\OneDrive\Desktop\FYP\basic_app\2024-05-03-10-56-31\osm.passenger.trips.xml.tmp"/>
        <alternatives-output value="NUL"/>
        <write-trips value="true"/>
    </output>

    <processing>
        <remove-loops value="true"/>
    </processing>

    <time>
        <begin value="0.0"/>
        <end value="3600.0"/>
    </time>

    <report>
        <no-warnings value="true"/>
        <ignore-errors value="true"/>
        <no-step-log value="true"/>
    </report>

</configuration>
-->

<routes xmlns:xsi="http://www.w3.org/2001/XMLSchema-instance" xsi:noNamespaceSchemaLocation="http://sumo.dlr.de/xsd/routes_file.xsd">
    <vType id="veh_passenger" vClass="passenger"/>
    <trip id="veh0" type="veh_passenger" depart="0.00" departLane="best" departSpeed="max" from="350542308#0" to="-23312849#1"/>
    <trip id="veh1" type="veh_passenger" depart="2.77" departLane="best" departSpeed="max" from="19910433#0" to="1164110045#1"/>
    <trip id="veh2" type="veh_passenger" depart="5.55" departLane="best" departSpeed="max" from="723381366#0" to="723381366#0"/>
    <trip id="veh9" type="veh_passenger" depart="24.96" departLane="best" departSpeed="max" from="19910433#0" to="1164110045#0"/>
    <trip id="veh12" type="veh_passenger" depart="33.28" departLane="best" departSpeed="max" from="23325923#0" to="8891351#3"/>
    <trip id="veh13" type="veh_passenger" depart="36.05" departLane="best" from="19910433#1" to="25497694#1"/>
    <trip id="veh15" type="veh_passenger" depart="41.60" departLane="best" from="809715978#1" to="25497694#1-AddedOnRampEdge"/>
    <trip id="veh18" type="veh_passenger" depart="49.92" departLane="best" from="1020641931" to="1164110045#1"/>
    <trip id="veh21" type="veh_passenger" depart="58.24" departLane="best" from="19910433#0-AddedOffRampEdge" to="1164110045#1"/>
    <trip id="veh28" type="veh_passenger" depart="77.65" departLane="best" departSpeed="max" from="1232725833" to="8891351#3"/>
    <trip id="veh30" type="veh_passenger" depart="83.20" departLane="best" from="350542308#3-AddedOffRampEdge" to="23046822#1"/>
    <trip id="veh31" type="veh_passenger" depart="85.97" departLane="best" from="8891351#1" to="23046822#2"/>
    <trip id="veh32" type="veh_passenger" depart="88.75" departLane="best" from="159072779#3" to="1164110045#1-AddedOnRampEdge"/>
    <trip id="veh33" type="veh_passenger" depart="91.52" departLane="best" from="-23327843#1" to="1164110046"/>
    <trip id="veh34" type="veh_passenger" depart="94.29" departLane="best" from="25497694#1" to="8891351#3"/>
    <trip id="veh35" type="veh_passenger" depart="97.06" departLane="best" departSpeed="max" from="23014000" to="1164110045#1"/>
    <trip id="veh39" type="veh_passenger" depart="108.16" departLane="best" from="723381366#2-AddedOnRampEdge" to="23046822#2"/>
    <trip id="veh43" type="veh_passenger" depart="119.25" departLane="best" departSpeed="max" from="-1020641929" to="723381366#2-AddedOnRampEdge"/>
    <trip id="veh45" type="veh_passenger" depart="124.80" departLane="best" from="1164110036" to="23046822#2"/>
    <trip id="veh46" type="veh_passenger" depart="127.57" departLane="best" departSpeed="max" from="23014000" to="8891351#3"/>
    <trip id="veh48" type="veh_passenger" depart="133.12" departLane="best" departSpeed="max" from="23312849#0" to="1164110045#1"/>
    <trip id="veh50" type="veh_passenger" depart="138.66" departLane="best" from="25497696" to="1164110036-AddedOnRampEdge"/>
    <trip id="veh55" type="veh_passenger" depart="152.53" departLane="best" from="809715978#2" to="8891351#1"/>
    <trip id="veh57" type="veh_passenger" depart="158.08" departLane="best" from="809715978#2" to="8891351#3"/>
    <trip id="veh59" type="veh_passenger" depart="163.62" departLane="best" from="723381366#1" to="1164110036"/>
    <trip id="veh61" type="veh_passenger" depart="169.17" departLane="best" from="159072779#3" to="8891351#2"/>
    <trip id="veh62" type="veh_passenger" depart="171.94" departLane="best" departSpeed="max" from="23014000" to="1164110045#1"/>
    <trip id="veh63" type="veh_passenger" depart="174.72" departLane="best" from="23325923#1" to="723381366#2-AddedOnRampEdge"/>
    <trip id="veh67" type="veh_passenger" depart="185.81" departLane="best" from="1164110036-AddedOnRampEdge" to="1164110045#1"/>
    <trip id="veh69" type="veh_passenger" depart="191.36" departLane="best" departSpeed="max" from="1232725833" to="1164110045#1"/>
    <trip id="veh70" type="veh_passenger" depart="194.13" departLane="best" departSpeed="max" from="-23620936" to="386637921"/>
    <trip id="veh71" type="veh_passenger" depart="196.90" departLane="best" departSpeed="max" from="1232725833" to="8891351#3"/>
    <trip id="veh74" type="veh_passenger" depart="205.22" departLane="best" departSpeed="max" from="1232725833" to="1164110036-AddedOnRampEdge"/>
    <trip id="veh76" type="veh_passenger" depart="210.77" departLane="best" from="723381366#2-AddedOnRampEdge" to="1164110045#1"/>
    <trip id="veh77" type="veh_passenger" depart="213.54" departLane="best" from="1164110036" to="23046822#2"/>
    <trip id="veh78" type="veh_passenger" depart="216.32" departLane="best" departSpeed="max" from="723381366#0" to="723381366#0"/>
    <trip id="veh81" type="veh_passenger" depart="224.64" departLane="best" from="809715978#1" to="1164110045#1-AddedOnRampEdge"/>
    <trip id="veh82" type="veh_passenger" depart="227.41" departLane="best" from="1164110046" to="23046822#2"/>
    <trip id="veh83" type="veh_passenger" depart="230.18" departLane="best" departSpeed="max" from="23014000" to="1164110050"/>
    <trip id="veh84" type="veh_passenger" depart="232.96" departLane="best" departSpeed="max" from="154535056#0" to="8891351#3"/>
    <trip id="veh85" type="veh_passenger" depart="235.73" departLane="best" departSpeed="max" from="23014000" to="8891351#1-AddedOffRampEdge"/>
    <trip id="veh87" type="veh_passenger" depart="241.28" departLane="best" from="8891351#3" to="8891351#3"/>
    <trip id="veh88" type="veh_passenger" depart="244.05" departLane="best" departSpeed="max" from="809715978#0" to="1164110045#0"/>
    <trip id="veh91" type="veh_passenger" depart="252.37" departLane="best" from="159072779#3" to="809715981#1"/>
    <trip id="veh92" type="veh_passenger" depart="255.14" departLane="best" from="8891351#2" to="8891351#3-AddedOnRampEdge"/>
    <trip id="veh93" type="veh_passenger" depart="257.92" departLane="best" departSpeed="max" from="23327843#0" to="723381366#2-AddedOnRampEdge"/>
    <trip id="veh97" type="veh_passenger" depart="269.01" departLane="best" departSpeed="max" from="-23620936" to="25497694#1-AddedOnRampEdge"/>
    <trip id="veh98" type="veh_passenger" depart="271.78" departLane="best" departSpeed="max" from="23312849#0" to="8891351#1-AddedOffRampEdge"/>
    <trip id="veh100" type="veh_passenger" depart="277.33" departLane="best" from="1020641931" to="1164110045#1"/>
    <trip id="veh102" type="veh_passenger" depart="282.88" departLane="best" departSpeed="max" from="1232725833" to="1164110036"/>
    <trip id="veh103" type="veh_passenger" depart="285.65" departLane="best" from="8891351#0" to="1164110045#1-AddedOnRampEdge"/>
    <trip id="veh104" type="veh_passenger" depart="288.42" departLane="best" departSpeed="max" from="23014000" to="25497694#1-AddedOnRampEdge"/>
    <trip id="veh105" type="veh_passenger" depart="291.19" departLane="best" departSpeed="max" from="23325923#0" to="8891351#3"/>
    <trip id="veh106" type="veh_passenger" depart="293.97" departLane="best" departSpeed="max" from="1232725833" to="723381366#2-AddedOnRampEdge"/>
    <trip id="veh107" type="veh_passenger" depart="296.74" departLane="best" departSpeed="max" from="154535056#0" to="23046822#1"/>
    <trip id="veh110" type="veh_passenger" depart="305.06" departLane="best" departSpeed="max" from="-23620936" to="23046822#2"/>
    <trip id="veh111" type="veh_passenger" depart="307.83" departLane="best" departSpeed="max" from="-23620936" to="1164110045#1"/>
    <trip id="veh112" type="veh_passenger" depart="310.61" departLane="best" from="159072779#3" to="8891351#3"/>
    <trip id="veh113" type="veh_passenger" depart="313.38" departLane="best" from="809715978#2" to="8891351#2"/>
    <trip id="veh114" type="veh_passenger" depart="316.15" departLane="best" from="19910433#0-AddedOffRampEdge" to="1164110045#0"/>
    <trip id="veh115" type="veh_passenger" depart="318.93" departLane="best" departSpeed="max" from="809715978#0" to="723381366#2"/>
    <trip id="veh116" type="veh_passenger" depart="321.70" departLane="best" from="25497696" to="8891351#3-AddedOnRampEdge"/>
    <trip id="veh118" type="veh_passenger" depart="327.25" departLane="best" departSpeed="max" from="809715978#0" to="15052274"/>
    <trip id="veh119" type="veh_passenger" depart="330.02" departLane="best" from="624059110" to="8891351#3"/>
    <trip id="veh121" type="veh_passenger" depart="335.57" departLane="best" departSpeed="max" from="350542308#0" to="1164110046"/>
    <trip id="veh124" type="veh_passenger" depart="343.89" departLane="best" departSpeed="max" from="23014000" to="1164110050"/>
    <trip id="veh125" type="veh_passenger" depart="346.66" departLane="best" departSpeed="max" from="-1020641929" to="809715981#1"/>
    <trip id="veh126" type="veh_passenger" depart="349.43" departLane="best" departSpeed="max" from="350542308#0" to="1164110046"/>
    <trip id="veh127" type="veh_passenger" depart="352.21" departLane="best" departSpeed="max" from="723381366#0" to="25497694#1"/>
    <trip id="veh129" type="veh_passenger" depart="357.75" departLane="best" from="624059110" to="8891351#2"/>
    <trip id="veh131" type="veh_passenger" depart="363.30" departLane="best" departSpeed="max" from="809715978#0" to="25497694#1-AddedOnRampEdge"/>
    <trip id="veh132" type="veh_passenger" depart="366.07" departLane="best" from="8891351#0" to="1164110045#1"/>
    <trip id="veh133" type="veh_passenger" depart="368.85" departLane="best" departSpeed="max" from="154535056#0" to="1164110035"/>
    <trip id="veh134" type="veh_passenger" depart="371.62" departLane="best" from="723381366#2" to="8891351#2"/>
    <trip id="veh137" type="veh_passenger" depart="379.94" departLane="best" from="809715978#1" to="8891351#3"/>
    <trip id="veh138" type="veh_passenger" depart="382.71" departLane="best" departSpeed="max" from="809715978#0" to="8891351#2"/>
    <trip id="veh141" type="veh_passenger" depart="391.03" departLane="best" from="723381366#2-AddedOnRampEdge" to="1164110035"/>
    <trip id="veh142" type="veh_passenger" depart="393.81" departLane="best" from="809715978#2" to="8891351#1-AddedOffRampEdge"/>
    <trip id="veh143" type="veh_passenger" depart="396.58" departLane="best" departSpeed="max" from="1232725833" to="8891351#0"/>
    <trip id="veh144" type="veh_passenger" depart="399.35" departLane="best" departSpeed="max" from="23014000" to="15052274"/>
    <trip id="veh145" type="veh_passenger" depart="402.13" departLane="best" from="723381366#2-AddedOnRampEdge" to="1164110045#1"/>
    <trip id="veh147" type="veh_passenger" depart="407.67" departLane="best" departSpeed="max" from="19910433#0" to="8891351#1-AddedOffRampEdge"/>
    <trip id="veh149" type="veh_passenger" depart="413.22" departLane="best" departSpeed="max" from="350542308#0" to="23046822#1"/>
    <trip id="veh153" type="veh_passenger" depart="424.31" departLane="best" from="1164110036" to="23046822#2"/>
    <trip id="veh156" type="veh_passenger" depart="432.63" departLane="best" from="19910433#1" to="25497694#1-AddedOnRampEdge"/>
    <trip id="veh157" type="veh_passenger" depart="435.41" departLane="best" departSpeed="max" from="154535056#0" to="723381366#2"/>
    <trip id="veh158" type="veh_passenger" depart="438.18" departLane="best" departSpeed="max" from="-1020641929" to="8891351#3"/>
    <trip id="veh159" type="veh_passenger" depart="440.95" departLane="best" from="23325923#1" to="723381366#2-AddedOnRampEdge"/>
    <trip id="veh160" type="veh_passenger" depart="443.73" departLane="best" departSpeed="max" from="723381366#0" to="723381366#0"/>
    <trip id="veh163" type="veh_passenger" depart="452.05" departLane="best" departSpeed="max" from="19910433#0" to="8891351#1-AddedOffRampEdge"/>
    <trip id="veh164" type="veh_passenger" depart="454.82" departLane="best" departSpeed="max" from="723381366#0" to="15052274"/>
    <trip id="veh165" type="veh_passenger" depart="457.59" departLane="best" departSpeed="max" from="19910433#0" to="23046822#1"/>
    <trip id="veh166" type="veh_passenger" depart="460.37" departLane="best" departSpeed="max" from="23014000" to="15052274"/>
    <trip id="veh167" type="veh_passenger" depart="463.14" departLane="best" from="1164110036-AddedOnRampEdge" to="23046822#2"/>
    <trip id="veh171" type="veh_passenger" depart="474.23" departLane="best" departSpeed="max" from="-1020641929" to="1164110050"/>
    <trip id="veh172" type="veh_passenger" depart="477.00" departLane="best" departSpeed="max" from="23014000" to="25497694#1-AddedOnRampEdge"/>
    <trip id="veh173" type="veh_passenger" depart="479.78" departLane="best" from="350542308#3" to="23046822#2"/>
    <trip id="veh174" type="veh_passenger" depart="482.55" departLane="best" departSpeed="max" from="23014000" to="1164110045#1"/>
    <trip id="veh176" type="veh_passenger" depart="488.10" departLane="best" from="723381366#2-AddedOnRampEdge" to="1164110045#1"/>
    <trip id="veh179" type="veh_passenger" depart="496.42" departLane="best" departSpeed="max" from="809715978#0" to="809715978#2"/>
    <trip id="veh182" type="veh_passenger" depart="504.74" departLane="best" departSpeed="max" from="154535056#0" to="23046822#2"/>
    <trip id="veh188" type="veh_passenger" depart="521.38" departLane="best" departSpeed="max" from="723381366#0" to="809715981#1"/>
    <trip id="veh189" type="veh_passenger" depart="524.15" departLane="best" from="1164110036" to="23046822#2"/>
    <trip id="veh191" type="veh_passenger" depart="529.70" departLane="best" from="23312849#2" to="-23325923#0"/>
    <trip id="veh192" type="veh_passenger" depart="532.47" departLane="best" departSpeed="max" from="23014000" to="809715981#1"/>
    <trip id="veh194" type="veh_passenger" depart="538.02" departLane="best" from="25497694#1-AddedOnRampEdge" to="8891351#3"/>
    <trip id="veh199" type="veh_passenger" depart="551.88" departLane="best" from="-624059110" to="1164110050"/>
    <trip id="veh201" type="veh_passenger" depart="557.43" departLane="best" from="23325923#1" to="1164110036-AddedOnRampEdge"/>
    <trip id="veh205" type="veh_passenger" depart="568.52" departLane="best" departSpeed="max" from="23014000" to="1164110045#1"/>
    <trip id="veh206" type="veh_passenger" depart="571.30" departLane="best" departSpeed="max" from="23014000" to="8891351#3"/>
    <trip id="veh209" type="veh_passenger" depart="579.62" departLane="best" departSpeed="max" from="809715978#0" to="8891351#3"/>
    <trip id="veh212" type="veh_passenger" depart="587.94" departLane="best" departSpeed="max" from="1232725833" to="1164110045#1"/>
    <trip id="veh215" type="veh_passenger" depart="596.26" departLane="best" departSpeed="max" from="23014000" to="1164110045#0"/>
    <trip id="veh218" type="veh_passenger" depart="604.58" departLane="best" from="19910433#1" to="25497694#1"/>
    <trip id="veh222" type="veh_passenger" depart="615.67" departLane="best" departSpeed="max" from="723381366#0" to="8891351#1"/>
    <trip id="veh225" type="veh_passenger" depart="623.99" departLane="best" from="350542308#2" to="809715981#1"/>
    <trip id="veh230" type="veh_passenger" depart="637.86" departLane="best" from="23327848#0" to="1164110045#1"/>
    <trip id="veh231" type="veh_passenger" depart="640.63" departLane="best" departSpeed="max" from="723381366#0" to="809715981#1"/>
    <trip id="veh233" type="veh_passenger" depart="646.18" departLane="best" departSpeed="max" from="723381366#0" to="1164110036"/>
    <trip id="veh234" type="veh_passenger" depart="648.95" departLane="best" departSpeed="max" from="809715978#0" to="8891351#3"/>
    <trip id="veh240" type="veh_passenger" depart="665.59" departLane="best" from="1164110036" to="809715981#1"/>
    <trip id="veh242" type="veh_passenger" depart="671.13" departLane="best" from="1164110036-AddedOnRampEdge" to="8891351#3-AddedOnRampEdge"/>
    <trip id="veh246" type="veh_passenger" depart="682.23" departLane="best" departSpeed="max" from="809715978#0" to="8891351#0"/>
    <trip id="veh247" type="veh_passenger" depart="685.00" departLane="best" from="1164110036" to="8891351#3"/>
    <trip id="veh248" type="veh_passenger" depart="687.77" departLane="best" departSpeed="max" from="350542308#0" to="8891351#0"/>
    <trip id="veh249" type="veh_passenger" depart="690.55" departLane="best" departSpeed="max" from="723381366#0" to="23046822#2"/>
    <trip id="veh250" type="veh_passenger" depart="693.32" departLane="best" departSpeed="max" from="723381366#0" to="8891351#3"/>
    <trip id="veh251" type="veh_passenger" depart="696.09" departLane="best" departSpeed="max" from="19910433#0" to="809715981#1"/>
    <trip id="veh252" type="veh_passenger" depart="698.87" departLane="best" departSpeed="max" from="23014000" to="723381366#2-AddedOnRampEdge"/>
    <trip id="veh253" type="veh_passenger" depart="701.64" departLane="best" departSpeed="max" from="19910433#0" to="8891351#1-AddedOffRampEdge"/>
    <trip id="veh255" type="veh_passenger" depart="707.19" departLane="best" from="809715978#2" to="1164110045#1-AddedOnRampEdge"/>
    <trip id="veh258" type="veh_passenger" depart="715.51" departLane="best" departSpeed="max" from="809715978#0" to="1164110045#1"/>
    <trip id="veh259" type="veh_passenger" depart="718.28" departLane="best" departSpeed="max" from="1232725833" to="809715981#1"/>
    <trip id="veh260" type="veh_passenger" depart="721.05" departLane="best" departSpeed="max" from="19910433#0" to="8891351#2"/>
    <trip id="veh262" type="veh_passenger" depart="726.60" departLane="best" departSpeed="max" from="-1020641929" to="8891351#3"/>
    <trip id="veh267" type="veh_passenger" depart="740.47" departLane="best" departSpeed="max" from="723381366#0" to="15052274"/>
    <trip id="veh268" type="veh_passenger" depart="743.24" departLane="best" from="25497694#1" to="23046822#2"/>
    <trip id="veh269" type="veh_passenger" depart="746.01" departLane="best" departSpeed="max" from="23325923#0" to="23046822#2"/>
    <trip id="veh272" type="veh_passenger" depart="754.33" departLane="best" departSpeed="max" from="154535056#0" to="1164110036"/>
    <trip id="veh273" type="veh_passenger" depart="757.11" departLane="best" from="1164110046" to="1164110036"/>
    <trip id="veh274" type="veh_passenger" depart="759.88" departLane="best" departSpeed="max" from="23325923#0" to="809715981#1"/>
    <trip id="veh275" type="veh_passenger" depart="762.65" departLane="best" from="1164110046" to="1164110045#1"/>
    <trip id="veh278" type="veh_passenger" depart="770.97" departLane="best" departSpeed="max" from="19910433#0" to="1164110035"/>
    <trip id="veh279" type="veh_passenger" depart="773.75" departLane="best" from="1164110046" to="1164110045#1"/>
    <trip id="veh280" type="veh_passenger" depart="776.52" departLane="best" departSpeed="max" from="23325923#0" to="1164110050"/>
    <trip id="veh282" type="veh_passenger" depart="782.07" departLane="best" departSpeed="max" from="723381366#0" to="1164110036"/>
    <trip id="veh284" type="veh_passenger" depart="787.61" departLane="best" from="809715978#2" to="25497694#1-AddedOnRampEdge"/>
    <trip id="veh285" type="veh_passenger" depart="790.39" departLane="best" from="23046822#1" to="23046822#2"/>
    <trip id="veh287" type="veh_passenger" depart="795.93" departLane="best" from="8891351#1-AddedOffRampEdge" to="23046822#2"/>
    <trip id="veh288" type="veh_passenger" depart="798.71" departLane="best" departSpeed="max" from="809715978#0" to="23046822#1"/>
    <trip id="veh289" type="veh_passenger" depart="801.48" departLane="best" departSpeed="max" from="-23620936" to="350542308#3-AddedOffRampEdge"/>
    <trip id="veh290" type="veh_passenger" depart="804.25" departLane="best" from="23327848#1" to="1164110036-AddedOnRampEdge"/>
    <trip id="veh291" type="veh_passenger" depart="807.03" departLane="best" from="23327848#0" to="15052274"/>
    <trip id="veh294" type="veh_passenger" depart="815.35" departLane="best" from="723381366#2-AddedOnRampEdge" to="1164110045#1"/>
    <trip id="veh295" type="veh_passenger" depart="818.12" departLane="best" departSpeed="max" from="23325923#0" to="23046822#2"/>
    <trip id="veh296" type="veh_passenger" depart="820.89" departLane="best" departSpeed="max" from="23014000" to="8891351#1-AddedOffRampEdge"/>
    <trip id="veh299" type="veh_passenger" depart="829.21" departLane="best" departSpeed="max" from="723381366#0" to="8891351#3"/>
    <trip id="veh300" type="veh_passenger" depart="831.99" departLane="best" departSpeed="max" from="1232725833" to="1164110045#1"/>
    <trip id="veh301" type="veh_passenger" depart="834.76" departLane="best" from="350542308#3-AddedOffRampEdge" to="1164110045#0"/>
    <trip id="veh303" type="veh_passenger" depart="840.31" departLane="best" departSpeed="max" from="-1020641929" to="23046822#2"/>
    <trip id="veh305" type="veh_passenger" depart="845.85" departLane="best" departSpeed="max" from="1232725833" to="723381366#2"/>
    <trip id="veh306" type="veh_passenger" depart="848.63" departLane="best" departSpeed="max" from="723381366#0" to="23046822#2"/>
    <trip id="veh307" type="veh_passenger" depart="851.40" departLane="best" departSpeed="max" from="723381366#0" to="8891351#3"/>
    <trip id="veh309" type="veh_passenger" depart="856.94" departLane="best" from="350542308#3-AddedOffRampEdge" to="8891351#3"/>
    <trip id="veh311" type="veh_passenger" depart="862.49" departLane="best" from="350542308#1" to="8891351#3"/>
    <trip id="veh314" type="veh_passenger" depart="870.81" departLane="best" departSpeed="max" from="723381366#0" to="25497694#1"/>
    <trip id="veh315" type="veh_passenger" depart="873.58" departLane="best" departSpeed="max" from="19910433#0" to="1164110036"/>
    <trip id="veh316" type="veh_passenger" depart="876.36" departLane="best" departSpeed="max" from="723381366#0" to="723381366#2"/>
    <trip id="veh319" type="veh_passenger" depart="884.68" departLane="best" from="-23312849#2" to="23046822#2"/>
    <trip id="veh320" type="veh_passenger" depart="887.45" departLane="best" departSpeed="max" from="19910433#0" to="1164110045#1-AddedOnRampEdge"/>
    <trip id="veh322" type="veh_passenger" depart="893.00" departLane="best" departSpeed="max" from="809715978#0" to="25497694#1-AddedOnRampEdge"/>
    <trip id="veh323" type="veh_passenger" depart="895.77" departLane="best" from="8891351#2" to="8891351#3-AddedOnRampEdge"/>
    <trip id="veh327" type="veh_passenger" depart="906.86" departLane="best" from="8891351#1" to="1164110045#1"/>
    <trip id="veh329" type="veh_passenger" depart="912.41" departLane="best" departSpeed="max" from="19910433#0" to="19910433#0"/>
    <trip id="veh334" type="veh_passenger" depart="926.28" departLane="best" departSpeed="max" from="23327843#0" to="23046822#2"/>
    <trip id="veh337" type="veh_passenger" depart="934.60" departLane="best" from="723381366#1" to="1164110045#1"/>
    <trip id="veh338" type="veh_passenger" depart="937.37" departLane="best" departSpeed="max" from="23327843#0" to="8891351#3"/>
    <trip id="veh339" type="veh_passenger" depart="940.14" departLane="best" departSpeed="max" from="23014000" to="723381366#2"/>
    <trip id="veh340" type="veh_passenger" depart="942.92" departLane="best" from="1164110036-AddedOnRampEdge" to="8891351#3"/>
    <trip id="veh341" type="veh_passenger" depart="945.69" departLane="best" from="25497696" to="1164110045#1-AddedOnRampEdge"/>
    <trip id="veh343" type="veh_passenger" depart="951.24" departLane="best" departSpeed="max" from="23327843#0" to="624059110"/>
    <trip id="veh344" type="veh_passenger" depart="954.01" departLane="best" from="8891351#3-AddedOnRampEdge" to="8891351#3"/>
    <trip id="veh345" type="veh_passenger" depart="956.78" departLane="best" departSpeed="max" from="23014000" to="1164110036"/>
    <trip id="veh346" type="veh_passenger" depart="959.56" departLane="best" departSpeed="max" from="809715978#0" to="23327858"/>
    <trip id="veh348" type="veh_passenger" depart="965.10" departLane="best" departSpeed="max" from="19910433#0" to="8891351#1"/>
    <trip id="veh352" type="veh_passenger" depart="976.20" departLane="best" from="809715978#2" to="8891351#1-AddedOffRampEdge"/>
    <trip id="veh353" type="veh_passenger" depart="978.97" departLane="best" departSpeed="max" from="19910433#0" to="809715981#1"/>
    <trip id="veh354" type="veh_passenger" depart="981.74" departLane="best" departSpeed="max" from="23014000" to="8891351#3"/>
    <trip id="veh355" type="veh_passenger" depart="984.52" departLane="best" departSpeed="max" from="23312849#0" to="8891351#0"/>
    <trip id="veh356" type="veh_passenger" depart="987.29" departLane="best" departSpeed="max" from="19910433#0" to="15052274"/>
    <trip id="veh357" type="veh_passenger" depart="990.06" departLane="best" from="25497694#1" to="8891351#3-AddedOnRampEdge"/>
    <trip id="veh360" type="veh_passenger" depart="998.38" departLane="best" departSpeed="max" from="23327843#0" to="23620936"/>
    <trip id="veh363" type="veh_passenger" depart="1006.70" departLane="best" from="25497694#1" to="1164110045#1"/>
    <trip id="veh365" type="veh_passenger" depart="1012.25" departLane="best" departSpeed="max" from="723381366#0" to="723381366#2"/>
    <trip id="veh367" type="veh_passenger" depart="1017.80" departLane="best" from="624059110" to="8891351#0"/>
    <trip id="veh370" type="veh_passenger" depart="1026.12" departLane="best" from="809715978#2" to="23046822#2"/>
    <trip id="veh371" type="veh_passenger" depart="1028.89" departLane="best" departSpeed="max" from="23325923#0" to="23046822#2"/>
    <trip id="veh372" type="veh_passenger" depart="1031.66" departLane="best" departSpeed="max" from="723381366#0" to="23046822#2"/>
    <trip id="veh373" type="veh_passenger" depart="1034.44" departLane="best" from="350542308#3" to="1164110045#0"/>
    <trip id="veh376" type="veh_passenger" depart="1042.75" departLane="best" from="350542308#2" to="8891351#1-AddedOffRampEdge"/>
    <trip id="veh377" type="veh_passenger" depart="1045.53" departLane="best" departSpeed="max" from="809715978#0" to="8891351#1-AddedOffRampEdge"/>
    <trip id="veh379" type="veh_passenger" depart="1051.07" departLane="best" departSpeed="max" from="723381366#0" to="809715981#1"/>
    <trip id="veh381" type="veh_passenger" depart="1056.62" departLane="best" departSpeed="max" from="-23620936" to="386637921"/>
    <trip id="veh382" type="veh_passenger" depart="1059.39" departLane="best" from="8891351#1-AddedOffRampEdge" to="8891351#3-AddedOnRampEdge"/>
    <trip id="veh383" type="veh_passenger" depart="1062.17" departLane="best" departSpeed="max" from="723381366#0" to="23046822#2"/>
    <trip id="veh385" type="veh_passenger" depart="1067.71" departLane="best" from="809715978#2" to="23046822#2"/>
    <trip id="veh386" type="veh_passenger" depart="1070.49" departLane="best" departSpeed="max" from="723381366#0" to="8891351#3"/>
    <trip id="veh387" type="veh_passenger" depart="1073.26" departLane="best" departSpeed="max" from="19910433#0" to="19910433#1"/>
    <trip id="veh389" type="veh_passenger" depart="1078.81" departLane="best" from="23327848#1" to="809715981#1"/>
    <trip id="veh391" type="veh_passenger" depart="1084.35" departLane="best" departSpeed="max" from="154535056#0" to="8891351#3"/>
    <trip id="veh393" type="veh_passenger" depart="1089.90" departLane="best" departSpeed="max" from="-1020641929" to="809715981#1"/>
    <trip id="veh397" type="veh_passenger" depart="1100.99" departLane="best" departSpeed="max" from="350542308#0" to="23046822#2"/>
    <trip id="veh398" type="veh_passenger" depart="1103.77" departLane="best" departSpeed="max" from="154535056#0" to="8891351#1"/>
    <trip id="veh402" type="veh_passenger" depart="1114.86" departLane="best" departSpeed="max" from="19910433#0" to="25497694#1"/>
    <trip id="veh406" type="veh_passenger" depart="1125.95" departLane="best" departSpeed="max" from="19910433#0" to="809715981#1"/>