<?xml version="1.0" encoding="UTF-8"?>

<!-- generated on 2024-05-03 00:41:11.308485 by osmWebWizard.py v1_18_0+0000-03ecfdea036
<configuration>
    <net-file value="C:\Users\hsarw\OneDrive\Desktop\FYP\basic_app\2024-05-03-00-40-50\osm.net.xml.gz"/>
    <output-trip-file value="C:\Users\hsarw\OneDrive\Desktop\FYP\basic_app\2024-05-03-00-40-50\osm.passenger.trips.xml"/>
    <route-file value="C:\Users\hsarw\OneDrive\Desktop\FYP\basic_app\2024-05-03-00-40-50\osm.passenger.rou.xml"/>
    <prefix value="veh"/>
    <trip-attributes value="departLane=&quot;best&quot;"/>
    <fringe-start-attributes value="departSpeed=&quot;max&quot;"/>
    <vehicle-class value="passenger"/>
    <lanes value="True"/>
    <fringe-factor value="5"/>
    <allow-fringe.min-length value="1000.0"/>
    <via-edge-types value="highway.motorway,highway.motorway_link,highway.trunk_link,highway.primary_link,highway.secondary_link,highway.tertiary_link"/>
    <min-distance value="300.0"/>
    <min-distance.fringe value="10.0"/>
    <remove-loops value="True"/>
    <validate value="True"/>
    <insertion-density value="12.0"/>
</configuration>
-->

<!-- generated on 2024-05-03 00:41:11 by Eclipse SUMO duarouter Version 1.18.0
<configuration xmlns:xsi="http://www.w3.org/2001/XMLSchema-instance" xsi:noNamespaceSchemaLocation="http://sumo.dlr.de/xsd/duarouterConfiguration.xsd">

    <input>
        <net-file value="C:\Users\hsarw\OneDrive\Desktop\FYP\basic_app\2024-05-03-00-40-50\osm.net.xml.gz"/>
        <route-files value="C:\Users\hsarw\OneDrive\Desktop\FYP\basic_app\2024-05-03-00-40-50\osm.passenger.trips.xml"/>
    </input>

    <output>
        <output-file value="C:\Users\hsarw\OneDrive\Desktop\FYP\basic_app\2024-05-03-00-40-50\osm.passenger.trips.xml.tmp"/>
        <alternatives-output value="NUL"/>
        <write-trips value="true"/>
    </output>

    <processing>
        <remove-loops value="true"/>
    </processing>

    <time>
        <begin value="0.0"/>
        <end value="3600.0"/>
    </time>

    <report>
        <no-warnings value="true"/>
        <ignore-errors value="true"/>
        <no-step-log value="true"/>
    </report>

</configuration>
-->

<routes xmlns:xsi="http://www.w3.org/2001/XMLSchema-instance" xsi:noNamespaceSchemaLocation="http://sumo.dlr.de/xsd/routes_file.xsd">
    <vType id="veh_passenger" vClass="passenger"/>
    <trip id="veh0" type="veh_passenger" depart="0.00" departLane="best" from="202156994#0" to="-111833185#0"/>
    <trip id="veh1" type="veh_passenger" depart="11.50" departLane="best" departSpeed="max" from="-55741054" to="-4610472#0"/>
    <trip id="veh2" type="veh_passenger" depart="22.99" departLane="best" from="339201217" to="24913524#3"/>
    <trip id="veh4" type="veh_passenger" depart="45.99" departLane="best" from="-43231842#1" to="156364556#1"/>
    <trip id="veh5" type="veh_passenger" depart="57.48" departLane="best" from="1159156576#1" to="-35578576#4"/>
    <trip id="veh6" type="veh_passenger" depart="68.98" departLane="best" from="-43231842#2" to="202156994#0"/>
    <trip id="veh7" type="veh_passenger" depart="80.48" departLane="best" from="4611698" to="1040930907#0"/>
    <trip id="veh8" type="veh_passenger" depart="91.97" departLane="best" from="-4611693#1" to="25294729#1"/>
    <trip id="veh9" type="veh_passenger" depart="103.47" departLane="best" departSpeed="max" from="1117432853#0" to="-195411606"/>
    <trip id="veh11" type="veh_passenger" depart="126.46" departLane="best" from="-168940071#2" to="-1173516145#0"/>
    <trip id="veh12" type="veh_passenger" depart="137.96" departLane="best" from="492340367#1" to="-202817674#5"/>
    <trip id="veh13" type="veh_passenger" depart="149.45" departLane="best" from="4611694#1" to="339201177#4"/>
    <trip id="veh14" type="veh_passenger" depart="160.95" departLane="best" departSpeed="max" from="158023913" to="819027709"/>
    <trip id="veh15" type="veh_passenger" depart="172.45" departLane="best" from="1126234503#0" to="190447767"/>
    <trip id="veh16" type="veh_passenger" depart="183.94" departLane="best" from="-465376254#3" to="-23121445#2"/>
    <trip id="veh17" type="veh_passenger" depart="195.44" departLane="best" from="-51167934#3" to="202156991"/>
    <trip id="veh18" type="veh_passenger" depart="206.94" departLane="best" from="28251222#0" to="-1123151415#0"/>
    <trip id="veh19" type="veh_passenger" depart="218.43" departLane="best" from="-4610472#0" to="-84960595#0"/>
    <trip id="veh20" type="veh_passenger" depart="229.93" departLane="best" departSpeed="max" from="-153698390#2" to="4610524#0"/>
    <trip id="veh21" type="veh_passenger" depart="241.43" departLane="best" from="-168940071#8" to="234463928#1"/>
    <trip id="veh22" type="veh_passenger" depart="252.92" departLane="best" from="202156994#0" to="1119935327#1"/>
    <trip id="veh23" type="veh_passenger" depart="264.42" departLane="best" departSpeed="max" from="1123151415#0" to="43231842#3"/>
    <trip id="veh24" type="veh_passenger" depart="275.92" departLane="best" from="534588621#0" to="61584187#1"/>
    <trip id="veh25" type="veh_passenger" depart="287.41" departLane="best" from="202157002#2" to="22972219#1"/>
    <trip id="veh26" type="veh_passenger" depart="298.91" departLane="best" departSpeed="max" from="-24990040#1" to="339201177#3"/>
    <trip id="veh27" type="veh_passenger" depart="310.41" departLane="best" departSpeed="max" from="-24243107" to="-1133992736#0"/>
    <trip id="veh29" type="veh_passenger" depart="333.40" departLane="best" from="-168940071#7" to="24990040#1"/>
    <trip id="veh30" type="veh_passenger" depart="344.90" departLane="best" from="490365295#0" to="42103020#0"/>
    <trip id="veh31" type="veh_passenger" depart="356.39" departLane="best" from="1151064395#1" to="-111833185#1"/>
    <trip id="veh32" type="veh_passenger" depart="367.89" departLane="best" from="1097921784#1" to="-534588621#0"/>
    <trip id="veh34" type="veh_passenger" depart="390.88" departLane="best" departSpeed="max" from="541295978#0" to="1079495669#1"/>
    <trip id="veh35" type="veh_passenger" depart="402.38" departLane="best" from="202817674#5" to="-1126465845"/>
    <trip id="veh37" type="veh_passenger" depart="425.37" departLane="best" from="534588621#0" to="-4773029#0"/>
    <trip id="veh38" type="veh_passenger" depart="436.87" departLane="best" from="168942727#2" to="51167934#1"/>
    <trip id="veh39" type="veh_passenger" depart="448.36" departLane="best" from="194069450#0" to="55741054"/>
    <trip id="veh40" type="veh_passenger" depart="459.86" departLane="best" departSpeed="max" from="1127596842#0" to="-4610374"/>
    <trip id="veh41" type="veh_passenger" depart="471.36" departLane="best" departSpeed="max" from="882389497" to="-156364570#4"/>
    <trip id="veh42" type="veh_passenger" depart="482.85" departLane="best" from="-168940071#1" to="-1123151415#0"/>
    <trip id="veh43" type="veh_passenger" depart="494.35" departLane="best" from="-194962375#2" to="234463931#1"/>
    <trip id="veh44" type="veh_passenger" depart="505.85" departLane="best" from="4610476#2" to="1144362247"/>
    <trip id="veh45" type="veh_passenger" depart="517.34" departLane="best" from="-120675240#3" to="882389494#1"/>
    <trip id="veh46" type="veh_passenger" depart="528.84" departLane="best" departSpeed="max" from="882389497" to="168942727#1"/>
    <trip id="veh47" type="veh_passenger" depart="540.34" departLane="best" from="82654059#1" to="465376254#0"/>
    <trip id="veh48" type="veh_passenger" depart="551.83" departLane="best" from="-1102369940#1" to="-1119854969#0"/>
    <trip id="veh49" type="veh_passenger" depart="563.33" departLane="best" from="23852053#1" to="169195795#1"/>
    <trip id="veh50" type="veh_passenger" depart="574.83" departLane="best" from="534588621#0" to="24243092#0"/>
    <trip id="veh51" type="veh_passenger" depart="586.32" departLane="best" from="-114667396#3" to="-743631784#0"/>
    <trip id="veh52" type="veh_passenger" depart="597.82" departLane="best" departSpeed="max" from="541295978#0" to="51167934#1"/>
    <trip id="veh53" type="veh_passenger" depart="609.31" departLane="best" from="606078065#1" to="490365295#0"/>
    <trip id="veh55" type="veh_passenger" depart="632.31" departLane="best" from="-38208961" to="171826984#2"/>
    <trip id="veh56" type="veh_passenger" depart="643.80" departLane="best" from="4610362#2" to="168942727#1"/>
    <trip id="veh57" type="veh_passenger" depart="655.30" departLane="best" from="-1040930907#2" to="1101961735#1"/>
    <trip id="veh58" type="veh_passenger" depart="666.80" departLane="best" from="31313667#2" to="606078072#1"/>
    <trip id="veh59" type="veh_passenger" depart="678.29" departLane="best" departSpeed="max" from="541295978#0" to="4611693#2"/>
    <trip id="veh60" type="veh_passenger" depart="689.79" departLane="best" from="1077923225#0" to="-1127595983"/>
    <trip id="veh62" type="veh_passenger" depart="712.78" departLane="best" from="156364570#3" to="251884680#0"/>
    <trip id="veh63" type="veh_passenger" depart="724.28" departLane="best" departSpeed="max" from="-120675240#4" to="35578559"/>
    <trip id="veh64" type="veh_passenger" depart="735.78" departLane="best" from="43231842#0" to="-168940071#7"/>
    <trip id="veh65" type="veh_passenger" depart="747.27" departLane="best" from="534588621#0" to="-492340367#0"/>
    <trip id="veh67" type="veh_passenger" depart="770.27" departLane="best" departSpeed="max" from="158023913" to="339201177#4"/>
    <trip id="veh68" type="veh_passenger" depart="781.76" departLane="best" from="339201185" to="1077923225#0"/>
    <trip id="veh69" type="veh_passenger" depart="793.26" departLane="best" departSpeed="max" from="882389497" to="24243107"/>
    <trip id="veh74" type="veh_passenger" depart="850.74" departLane="best" from="-51167934#1" to="-114667396#2"/>
    <trip id="veh75" type="veh_passenger" depart="862.24" departLane="best" departSpeed="max" from="4610524#1" to="24913524#3"/>
    <trip id="veh76" type="veh_passenger" depart="873.73" departLane="best" from="370359204#3" to="-194069450#1"/>
    <trip id="veh77" type="veh_passenger" depart="885.23" departLane="best" from="66071379#1" to="195397561#5"/>
    <trip id="veh78" type="veh_passenger" depart="896.73" departLane="best" from="1158584613" to="42103020#0"/>
    <trip id="veh79" type="veh_passenger" depart="908.22" departLane="best" from="-168940071#5" to="1170522567#0"/>
    <trip id="veh81" type="veh_passenger" depart="931.22" departLane="best" from="339201177#2" to="24913524#3"/>
    <trip id="veh82" type="veh_passenger" depart="942.71" departLane="best" departSpeed="max" from="84960595#0" to="-1173516145#1"/>
    <trip id="veh83" type="veh_passenger" depart="954.21" departLane="best" departSpeed="max" from="1127596842#0" to="61583423#1"/>
    <trip id="veh84" type="veh_passenger" depart="965.71" departLane="best" from="-51167934#3" to="-4773029#1"/>
    <trip id="veh85" type="veh_passenger" depart="977.20" departLane="best" from="316746323#1" to="1159149106"/>
    <trip id="veh87" type="veh_passenger" depart="1000.20" departLane="best" from="-465376254#2" to="606078065#1"/>
    <trip id="veh88" type="veh_passenger" depart="1011.69" departLane="best" from="1133457765#0" to="465376254#0"/>
    <trip id="veh89" type="veh_passenger" depart="1023.19" departLane="best" from="-168940071#2" to="-1123151415#0"/>
    <trip id="veh90" type="veh_passenger" depart="1034.69" departLane="best" from="950222545" to="4611698"/>
    <trip id="veh91" type="veh_passenger" depart="1046.18" departLane="best" from="492340367#3" to="-23121445#2"/>
    <trip id="veh92" type="veh_passenger" depart="1057.68" departLane="best" from="1126234503#0" to="82654059#1"/>
    <trip id="veh93" type="veh_passenger" depart="1069.18" departLane="best" from="534588621#0" to="42103020#0"/>
    <trip id="veh94" type="veh_passenger" depart="1080.67" departLane="best" from="11483007#0" to="1144362247"/>
    <trip id="veh96" type="veh_passenger" depart="1103.66" departLane="best" from="-168940071#6" to="31313667#1"/>
    <trip id="veh97" type="veh_passenger" depart="1115.16" departLane="best" from="1173516144#1" to="-882389497"/>
    <trip id="veh98" type="veh_passenger" depart="1126.66" departLane="best" from="82654059#1" to="202156991"/>
    <trip id="veh99" type="veh_passenger" depart="1138.15" departLane="best" from="15971197" to="340498988#0"/>
    <trip id="veh100" type="veh_passenger" depart="1149.65" departLane="best" from="1173516145#1" to="46140376#0"/>
    <trip id="veh101" type="veh_passenger" depart="1161.15" departLane="best" departSpeed="max" from="-23813206" to="81112790#1"/>
    <trip id="veh102" type="veh_passenger" depart="1172.64" departLane="best" departSpeed="max" from="-153698390#2" to="-316746323#3"/>
    <trip id="veh103" type="veh_passenger" depart="1184.14" departLane="best" from="194073677#1" to="24913524#3"/>
    <trip id="veh104" type="veh_passenger" depart="1195.64" departLane="best" departSpeed="max" from="4610524#1" to="-168940071#1"/>
    <trip id="veh105" type="veh_passenger" depart="1207.13" departLane="best" from="194073677#1" to="-23121445#3"/>
    <trip id="veh107" type="veh_passenger" depart="1230.13" departLane="best" from="-153698390#1" to="606078071#0"/>
    <trip id="veh108" type="veh_passenger" depart="1241.62" departLane="best" from="23121445#4" to="-882389497"/>
    <trip id="veh109" type="veh_passenger" depart="1253.12" departLane="best" from="1101961674#1" to="34848160#2"/>
    <trip id="veh111" type="veh_passenger" depart="1276.11" departLane="best" from="-137630045#0" to="4412868#2"/>
    <trip id="veh112" type="veh_passenger" depart="1287.61" departLane="best" departSpeed="max" from="541295978#0" to="51167934#1"/>
    <trip id="veh113" type="veh_passenger" depart="1299.11" departLane="best" departSpeed="max" from="1123151415#0" to="-202817674#3"/>
    <trip id="veh115" type="veh_passenger" depart="1322.10" departLane="best" from="202817674#4" to="-1040930907#2"/>
    <trip id="veh116" type="veh_passenger" depart="1333.59" departLane="best" from="4611699#1" to="-882389497"/>
    <trip id="veh117" type="veh_passenger" depart="1345.09" departLane="best" from="-194962375#1" to="190447768#1"/>
    <trip id="veh118" type="veh_passenger" depart="1356.59" departLane="best" from="-541295974#0" to="-202817674#5"/>
    <trip id="veh119" type="veh_passenger" depart="1368.08" departLane="best" from="30720544#1" to="-43156728#1"/>
    <trip id="veh120" type="veh_passenger" depart="1379.58" departLane="best" from="-195411605#1" to="51167934#2"/>
    <trip id="veh122" type="veh_passenger" depart="1402.57" departLane="best" from="492340367#0" to="-1173516144#0"/>
    <trip id="veh124" type="veh_passenger" depart="1425.57" departLane="best" from="-1101961674#2" to="42103020#0"/>
    <trip id="veh125" type="veh_passenger" depart="1437.06" departLane="best" from="202156994#0" to="-51167934#0"/>
    <trip id="veh127" type="veh_passenger" depart="1460.06" departLane="best" from="-137630045#1" to="-534588621#0"/>
    <trip id="veh129" type="veh_passenger" depart="1483.05" departLane="best" departSpeed="max" from="4773029#0" to="202156991"/>
    <trip id="veh130" type="veh_passenger" depart="1494.55" departLane="best" from="23121445#4" to="-168940071#7"/>
    <trip id="veh131" type="veh_passenger" depart="1506.04" departLane="best" from="1077923225#0" to="55741054"/>
    <trip id="veh132" type="veh_passenger" depart="1517.54" departLane="best" from="4610476#5" to="-465376254#2"/>
    <trip id="veh133" type="veh_passenger" depart="1529.04" departLane="best" departSpeed="max" from="60333313" to="1151064403"/>
    <trip id="veh134" type="veh_passenger" depart="1540.53" departLane="best" from="-4611694#1" to="1198409426#2"/>
    <trip id="veh135" type="veh_passenger" depart="1552.03" departLane="best" departSpeed="max" from="4610374" to="-534588621#0"/>
    <trip id="veh136" type="veh_passenger" depart="1563.53" departLane="best" from="1132678576#0" to="-23121445#4"/>
    <trip id="veh137" type="veh_passenger" depart="1575.02" departLane="best" from="1173516144#1" to="606078072#1"/>
    <trip id="veh138" type="veh_passenger" depart="1586.52" departLane="best" from="4611698" to="51167934#3"/>
    <trip id="veh139" type="veh_passenger" depart="1598.01" departLane="best" from="1113726463" to="606078072#1"/>
    <trip id="veh140" type="veh_passenger" depart="1609.51" departLane="best" from="-4610480#1" to="465376255#2"/>
    <trip id="veh141" type="veh_passenger" depart="1621.01" departLane="best" departSpeed="max" from="541295978#0" to="465376239"/>
    <trip id="veh142" type="veh_passenger" depart="1632.50" departLane="best" from="-4402228" to="4610479#0"/>
    <trip id="veh143" type="veh_passenger" depart="1644.00" departLane="best" departSpeed="max" from="1151064385" to="1133992734#1"/>
    <trip id="veh144" type="veh_passenger" depart="1655.50" departLane="best" from="4610476#4" to="4610524#0"/>
    <trip id="veh145" type="veh_passenger" depart="1666.99" departLane="best" from="28016312" to="-339201177#4"/>
    <trip id="veh146" type="veh_passenger" depart="1678.49" departLane="best" from="1112054538" to="465376255#2"/>
    <trip id="veh147" type="veh_passenger" depart="1689.99" departLane="best" from="82654059#0" to="-474362271"/>
    <trip id="veh148" type="veh_passenger" depart="1701.48" departLane="best" departSpeed="max" from="84960595#0" to="169195795#1"/>
    <trip id="veh149" type="veh_passenger" depart="1712.98" departLane="best" departSpeed="max" from="68647306#0" to="-15971189"/>
    <trip id="veh150" type="veh_passenger" depart="1724.48" departLane="best" from="82654059#1" to="25294728#0"/>
    <trip id="veh152" type="veh_passenger" depart="1747.47" departLane="best" from="-194962375#2" to="1151064395#1"/>
    <trip id="veh153" type="veh_passenger" depart="1758.97" departLane="best" from="339201177#2" to="1217865061#0"/>
    <trip id="veh154" type="veh_passenger" depart="1770.46" departLane="best" from="-195397561#2" to="15971197"/>
    <trip id="veh155" type="veh_passenger" depart="1781.96" departLane="best" from="1126244314#0" to="-195411605#1"/>
    <trip id="veh156" type="veh_passenger" depart="1793.46" departLane="best" from="4773029#1" to="606078072#1"/>
    <trip id="veh157" type="veh_passenger" depart="1804.95" departLane="best" from="-1101961674#1" to="606078071#0"/>
    <trip id="veh158" type="veh_passenger" depart="1816.45" departLane="best" departSpeed="max" from="158023913" to="31313667#1"/>
    <trip id="veh159" type="veh_passenger" depart="1827.94" departLane="best" from="340498976#2" to="24913524#3"/>
    <trip id="veh160" type="veh_passenger" depart="1839.44" departLane="best" from="1121011269#1" to="114667396#1"/>
    <trip id="veh161" type="veh_passenger" depart="1850.94" departLane="best" from="23013165" to="1111982484#1"/>
    <trip id="veh162" type="veh_passenger" depart="1862.43" departLane="best" from="1097921784#1" to="4611726#0"/>
    <trip id="veh163" type="veh_passenger" depart="1873.93" departLane="best" from="30721662#0" to="-882389497"/>
    <trip id="veh164" type="veh_passenger" depart="1885.43" departLane="best" from="1077923225#0" to="1132678576#0"/>
    <trip id="veh165" type="veh_passenger" depart="1896.92" departLane="best" departSpeed="max" from="1127596842#0" to="-882389497"/>
    <trip id="veh166" type="veh_passenger" depart="1908.42" departLane="best" from="1119854969#1" to="1133992873#1"/>
    <trip id="veh167" type="veh_passenger" depart="1919.92" departLane="best" departSpeed="max" from="68647306#0" to="24913524#3"/>
    <trip id="veh168" type="veh_passenger" depart="1931.41" departLane="best" departSpeed="max" from="60333313" to="-23121445#0"/>
    <trip id="veh169" type="veh_passenger" depart="1942.91" departLane="best" from="-950222545" to="188386313#1"/>
    <trip id="veh171" type="veh_passenger" depart="1965.90" departLane="best" from="202817674#5" to="-1173516145#1"/>
    <trip id="veh173" type="veh_passenger" depart="1988.90" departLane="best" from="1158584613" to="55741054"/>
    <trip id="veh174" type="veh_passenger" depart="2000.39" departLane="best" from="4610476#5" to="-23121445#4"/>
    <trip id="veh175" type="veh_passenger" depart="2011.89" departLane="best" from="156364570#2" to="-15977422#1"/>
    <trip id="veh176" type="veh_passenger" depart="2023.39" departLane="best" from="195411605#0" to="1111982484#1"/>
    <trip id="veh177" type="veh_passenger" depart="2034.88" departLane="best" from="4611707#1" to="340498988#0"/>
    <trip id="veh178" type="veh_passenger" depart="2046.38" departLane="best" from="23121445#5" to="-4610472#2"/>
    <trip id="veh179" type="veh_passenger" depart="2057.87" departLane="best" from="-339201177#5" to="1114798610#1"/>
    <trip id="veh180" type="veh_passenger" depart="2069.37" departLane="best" from="507023458#0" to="-114667396#3"/>
    <trip id="veh182" type="veh_passenger" depart="2092.36" departLane="best" from="-339201177#1" to="25294729#1"/>
    <trip id="veh183" type="veh_passenger" depart="2103.86" departLane="best" from="1170522572#0" to="-4773029#0"/>
    <trip id="veh184" type="veh_passenger" depart="2115.36" departLane="best" from="-222328410" to="1040930907#0"/>
    <trip id="veh185" type="veh_passenger" depart="2126.85" departLane="best" from="340498988#0" to="4067932"/>
    <trip id="veh186" type="veh_passenger" depart="2138.35" departLane="best" from="-194962375#0" to="114667396#0"/>
    <trip id="veh187" type="veh_passenger" depart="2149.85" departLane="best" departSpeed="max" from="-24990040#1" to="81112790#0"/>
    <trip id="veh188" type="veh_passenger" depart="2161.34" departLane="best" from="136571494#0" to="-1123151415#0"/>
    <trip id="veh189" type="veh_passenger" depart="2172.84" departLane="best" from="4611694#1" to="46140376#0"/>
    <trip id="veh191" type="veh_passenger" depart="2195.83" departLane="best" departSpeed="max" from="54781811" to="23013165"/>
    <trip id="veh192" type="veh_passenger" depart="2207.33" departLane="best" from="30721662#0" to="156364556#1"/>
    <trip id="veh193" type="veh_passenger" depart="2218.83" departLane="best" departSpeed="max" from="60333313" to="340498976#8"/>
    <trip id="veh194" type="veh_passenger" depart="2230.32" departLane="best" from="1159142856#2" to="-51167934#0"/>
    <trip id="veh196" type="veh_passenger" depart="2253.32" departLane="best" from="43231842#0" to="168940071#3"/>
    <trip id="veh197" type="veh_passenger" depart="2264.81" departLane="best" departSpeed="max" from="195401013#0" to="-6228081#1"/>
    <trip id="veh198" type="veh_passenger" depart="2276.31" departLane="best" departSpeed="max" from="-153698390#2" to="-751595930"/>
    <trip id="veh199" type="veh_passenger" depart="2287.81" departLane="best" from="-541295974#0" to="1101961674#2"/>
    <trip id="veh200" type="veh_passenger" depart="2299.30" departLane="best" departSpeed="max" from="158023913" to="-195397539"/>
    <trip id="veh201" type="veh_passenger" depart="2310.80" departLane="best" from="-4610480#1" to="25294729#1"/>
    <trip id="veh202" type="veh_passenger" depart="2322.29" departLane="best" from="28251222#1" to="-1127596842#0"/>
    <trip id="veh203" type="veh_passenger" depart="2333.79" departLane="best" from="1132678576#0" to="171826984#2"/>
    <trip id="veh205" type="veh_passenger" depart="2356.78" departLane="best" from="190447768#1" to="25294729#1"/>
    <trip id="veh206" type="veh_passenger" depart="2368.28" departLane="best" departSpeed="max" from="51167934#0" to="-387892378"/>
    <trip id="veh207" type="veh_passenger" depart="2379.78" departLane="best" from="1126234503#0" to="1040930907#0"/>
    <trip id="veh208" type="veh_passenger" depart="2391.27" departLane="best" departSpeed="max" from="111833185#0" to="34848160#2"/>
    <trip id="veh209" type="veh_passenger" depart="2402.77" departLane="best" departSpeed="max" from="51167934#0" to="-743631784#0"/>
    <trip id="veh211" type="veh_passenger" depart="2425.76" departLane="best" from="15977422#1" to="-202817674#4"/>
    <trip id="veh212" type="veh_passenger" depart="2437.26" departLane="best" from="43231842#2" to="-4610374"/>
    <trip id="veh214" type="veh_passenger" depart="2460.25" departLane="best" from="-1114798610#1" to="24990040#1"/>
    <trip id="veh215" type="veh_passenger" depart="2471.75" departLane="best" departSpeed="max" from="1127596842#0" to="-23121445#1"/>
    <trip id="veh216" type="veh_passenger" depart="2483.25" departLane="best" departSpeed="max" from="195401013#0" to="-111833185#0"/>
    <trip id="veh217" type="veh_passenger" depart="2494.74" departLane="best" from="1127592486#1" to="195397541#3"/>
    <trip id="veh218" type="veh_passenger" depart="2506.24" departLane="best" from="1159156576#1" to="24243092#1"/>
    <trip id="veh219" type="veh_passenger" depart="2517.74" departLane="best" from="202817674#1" to="-1173516144#0"/>
    <trip id="veh220" type="veh_passenger" depart="2529.23" departLane="best" departSpeed="max" from="-1159149106" to="-1133992736#0"/>
    <trip id="veh221" type="veh_passenger" depart="2540.73" departLane="best" from="370359204#1" to="1102369942"/>
    <trip id="veh222" type="veh_passenger" depart="2552.22" departLane="best" from="370359204#3" to="-1133992736#0"/>
    <trip id="veh223" type="veh_passenger" depart="2563.72" departLane="best" from="340498988#0" to="4611693#2"/>
    <trip id="veh224" type="veh_passenger" depart="2575.22" departLane="best" from="-465376254#3" to="-1159156576#0"/>
    <trip id="veh225" type="veh_passenger" depart="2586.71" departLane="best" from="31313667#2" to="171826984#2"/>
    <trip id="veh226" type="veh_passenger" depart="2598.21" departLane="best" from="950222545" to="-111833185#1"/>
    <trip id="veh227" type="veh_passenger" depart="2609.71" departLane="best" from="202157002#2" to="42103020#0"/>
    <trip id="veh228" type="veh_passenger" depart="2621.20" departLane="best" from="202817674#3" to="34848160#2"/>
    <trip id="veh230" type="veh_passenger" depart="2644.20" departLane="best" from="1119854969#1" to="24913524#3"/>
    <trip id="veh231" type="veh_passenger" depart="2655.69" departLane="best" from="169195795#0" to="-4610374"/>
    <trip id="veh232" type="veh_passenger" depart="2667.19" departLane="best" from="251884680#1" to="38208961"/>
    <trip id="veh233" type="veh_passenger" depart="2678.69" departLane="best" departSpeed="max" from="-24243107" to="22972195#2"/>
    <trip id="veh234" type="veh_passenger" depart="2690.18" departLane="best" from="340498982#0" to="-156364570#4"/>
    <trip id="veh235" type="veh_passenger" depart="2701.68" departLane="best" from="4611726#0" to="81112790#1"/>
    <trip id="veh236" type="veh_passenger" depart="2713.18" departLane="best" from="-194962375#1" to="-111833185#0"/>
    <trip id="veh237" type="veh_passenger" depart="2724.67" departLane="best" from="1079495669#1" to="24913524#3"/>
    <trip id="veh239" type="veh_passenger" depart="2747.67" departLane="best" from="202156994#0" to="234463931#1"/>
    <trip id="veh240" type="veh_passenger" depart="2759.16" departLane="best" from="-168942727#1" to="42103020#0"/>
    <trip id="veh241" type="veh_passenger" depart="2770.66" departLane="best" from="507023458#0" to="-202817674#2"/>
    <trip id="veh242" type="veh_passenger" depart="2782.15" departLane="best" from="-195397561#3" to="82654059#1"/>
    <trip id="veh243" type="veh_passenger" depart="2793.65" departLane="best" departSpeed="max" from="4610374" to="1116360926#1"/>
    <trip id="veh245" type="veh_passenger" depart="2816.64" departLane="best" from="-1198409426#0" to="1113726463"/>
    <trip id="veh246" type="veh_passenger" depart="2828.14" departLane="best" from="507023458#0" to="4610524#0"/>
    <trip id="veh247" type="veh_passenger" depart="2839.64" departLane="best" from="194069450#0" to="81112790#1"/>
    <trip id="veh248" type="veh_passenger" depart="2851.13" departLane="best" from="202156994#0" to="4611693#2"/>
    <trip id="veh249" type="veh_passenger" depart="2862.63" departLane="best" from="284493291#0" to="-1151064396"/>
    <trip id="veh250" type="veh_passenger" depart="2874.13" departLane="best" from="339201177#5" to="81112790#1"/>
    <trip id="veh251" type="veh_passenger" depart="2885.62" departLane="best" from="534588621#1" to="4610476#0"/>
    <trip id="veh252" type="veh_passenger" depart="2897.12" departLane="best" departSpeed="max" from="158023913" to="122820534#1"/>
    <trip id="veh254" type="veh_passenger" depart="2920.11" departLane="best" from="534588621#1" to="46140376#0"/>
    <trip id="veh255" type="veh_passenger" depart="2931.61" departLane="best" from="465376255#2" to="-1159156576#0"/>
    <trip id="veh256" type="veh_passenger" depart="2943.11" departLane="best" departSpeed="max" from="541295978#0" to="-4773029#0"/>
    <trip id="veh257" type="veh_passenger" depart="2954.60" departLane="best" departSpeed="max" from="1151064385" to="22972219#1"/>
    <trip id="veh258" type="veh_passenger" depart="2966.10" departLane="best" from="370359204#1" to="-4412868#1"/>
    <trip id="veh259" type="veh_passenger" depart="2977.60" departLane="best" from="-1102369940#0" to="-6228081#1"/>
    <trip id="veh261" type="veh_passenger" depart="3000.59" departLane="best" from="156364570#3" to="-1119854969#0"/>
    <trip id="veh262" type="veh_passenger" depart="3012.09" departLane="best" departSpeed="max" from="1170522570" to="34848160#2"/>
    <trip id="veh263" type="veh_passenger" depart="3023.58" departLane="best" from="24913519#1" to="24243101"/>
    <trip id="veh264" type="veh_passenger" depart="3035.08" departLane="best" departSpeed="max" from="1170522570" to="43231842#1"/>
    <trip id="veh265" type="veh_passenger" depart="3046.57" departLane="best" from="202156994#0" to="1040930907#0"/>
    <trip id="veh266" type="veh_passenger" depart="3058.07" departLane="best" from="190447766#1" to="120675240#3"/>
    <trip id="veh267" type="veh_passenger" depart="3069.57" departLane="best" from="156364570#2" to="114667396#1"/>