<?xml version="1.0" encoding="UTF-8"?>

<!-- generated on 2024-05-20 22:44:54.603921 by osmWebWizard.py v1_18_0+0000-03ecfdea036
<configuration>
    <net-file value="C:\Users\hsarw\OneDrive\Desktop\FYP\basic_app\2024-05-20-22-44-48\osm.net.xml.gz"/>
    <output-trip-file value="C:\Users\hsarw\OneDrive\Desktop\FYP\basic_app\2024-05-20-22-44-48\osm.passenger.trips.xml"/>
    <route-file value="C:\Users\hsarw\OneDrive\Desktop\FYP\basic_app\2024-05-20-22-44-48\osm.passenger.rou.xml"/>
    <prefix value="veh"/>
    <trip-attributes value="departLane=&quot;best&quot;"/>
    <fringe-start-attributes value="departSpeed=&quot;max&quot;"/>
    <vehicle-class value="passenger"/>
    <lanes value="True"/>
    <fringe-factor value="5"/>
    <allow-fringe.min-length value="1000.0"/>
    <via-edge-types value="highway.motorway,highway.motorway_link,highway.trunk_link,highway.primary_link,highway.secondary_link,highway.tertiary_link"/>
    <min-distance value="300.0"/>
    <min-distance.fringe value="10.0"/>
    <remove-loops value="True"/>
    <validate value="True"/>
    <insertion-density value="12.0"/>
</configuration>
-->

<!-- generated on 2024-05-20 22:44:54 by Eclipse SUMO duarouter Version 1.18.0
<configuration xmlns:xsi="http://www.w3.org/2001/XMLSchema-instance" xsi:noNamespaceSchemaLocation="http://sumo.dlr.de/xsd/duarouterConfiguration.xsd">

    <input>
        <net-file value="C:\Users\hsarw\OneDrive\Desktop\FYP\basic_app\2024-05-20-22-44-48\osm.net.xml.gz"/>
        <route-files value="C:\Users\hsarw\OneDrive\Desktop\FYP\basic_app\2024-05-20-22-44-48\osm.passenger.trips.xml"/>
    </input>

    <output>
        <output-file value="C:\Users\hsarw\OneDrive\Desktop\FYP\basic_app\2024-05-20-22-44-48\osm.passenger.trips.xml.tmp"/>
        <alternatives-output value="NUL"/>
        <write-trips value="true"/>
    </output>

    <processing>
        <remove-loops value="true"/>
    </processing>

    <time>
        <begin value="0.0"/>
        <end value="3600.0"/>
    </time>

    <report>
        <no-warnings value="true"/>
        <ignore-errors value="true"/>
        <no-step-log value="true"/>
    </report>

</configuration>
-->

<routes xmlns:xsi="http://www.w3.org/2001/XMLSchema-instance" xsi:noNamespaceSchemaLocation="http://sumo.dlr.de/xsd/routes_file.xsd">
    <vType id="veh_passenger" vClass="passenger"/>
    <trip id="veh0" type="veh_passenger" depart="0.00" departLane="best" from="723381366#1" to="1164110035"/>
    <trip id="veh1" type="veh_passenger" depart="3.94" departLane="best" from="25497694#1" to="1164110045"/>
    <trip id="veh2" type="veh_passenger" depart="7.88" departLane="best" from="8891351#1-AddedOffRampEdge" to="1164110035"/>
    <trip id="veh3" type="veh_passenger" depart="11.82" departLane="best" departSpeed="max" from="19910433" to="709496387"/>
    <trip id="veh4" type="veh_passenger" depart="15.77" departLane="best" from="1164110036" to="1164110045"/>
    <trip id="veh7" type="veh_passenger" depart="27.59" departLane="best" from="8891351#0" to="1164110035"/>
    <trip id="veh10" type="veh_passenger" depart="39.42" departLane="best" departSpeed="max" from="723381366#0" to="8891351#3-AddedOnRampEdge"/>
    <trip id="veh13" type="veh_passenger" depart="51.24" departLane="best" from="723381366#2-AddedOnRampEdge" to="1164110035"/>
    <trip id="veh14" type="veh_passenger" depart="55.18" departLane="best" departSpeed="max" from="19910433" to="1164110045"/>
    <trip id="veh15" type="veh_passenger" depart="59.12" departLane="best" from="1164110045" to="1164110045"/>
    <trip id="veh16" type="veh_passenger" depart="63.07" departLane="best" departSpeed="max" from="129195494" to="1164110045"/>
    <trip id="veh18" type="veh_passenger" depart="70.95" departLane="best" departSpeed="max" from="386637895" to="1164110045"/>
    <trip id="veh19" type="veh_passenger" depart="74.89" departLane="best" from="723381366#1" to="723381366#1"/>
    <trip id="veh20" type="veh_passenger" depart="78.83" departLane="best" departSpeed="max" from="19910433" to="8891351#1"/>
    <trip id="veh21" type="veh_passenger" depart="82.77" departLane="best" departSpeed="max" from="19910433" to="25497694#1-AddedOnRampEdge"/>
    <trip id="veh24" type="veh_passenger" depart="94.60" departLane="best" departSpeed="max" from="19910433" to="1164110035"/>
    <trip id="veh25" type="veh_passenger" depart="98.54" departLane="best" from="25497694#1-AddedOnRampEdge" to="1164110045"/>
    <trip id="veh27" type="veh_passenger" depart="106.42" departLane="best" departSpeed="max" from="19910433" to="1164110045"/>
    <trip id="veh28" type="veh_passenger" depart="110.37" departLane="best" departSpeed="max" from="723381366#0" to="8891351#3"/>
    <trip id="veh29" type="veh_passenger" depart="114.31" departLane="best" departSpeed="max" from="386637895" to="1164110045"/>
    <trip id="veh33" type="veh_passenger" depart="130.07" departLane="best" from="8891351#3-AddedOnRampEdge" to="8891351#3"/>
    <trip id="veh34" type="veh_passenger" depart="134.02" departLane="best" departSpeed="max" from="19910433" to="723381366#2"/>
    <trip id="veh35" type="veh_passenger" depart="137.96" departLane="best" departSpeed="max" from="386637895" to="8891351#3"/>
    <trip id="veh38" type="veh_passenger" depart="149.78" departLane="best" from="8891351#2" to="8891351#3"/>
    <trip id="veh40" type="veh_passenger" depart="157.67" departLane="best" from="1164110036" to="8891351#3"/>
    <trip id="veh41" type="veh_passenger" depart="161.61" departLane="best" from="8891351#1-AddedOffRampEdge" to="8891351#3"/>
    <trip id="veh42" type="veh_passenger" depart="165.55" departLane="best" from="8891351#1-AddedOffRampEdge" to="8891351#3"/>
    <trip id="veh44" type="veh_passenger" depart="173.43" departLane="best" departSpeed="max" from="386637895" to="1164110045"/>
    <trip id="veh46" type="veh_passenger" depart="181.32" departLane="best" departSpeed="max" from="19910433" to="19910433"/>
    <trip id="veh49" type="veh_passenger" depart="193.14" departLane="best" departSpeed="max" from="19910433" to="1164110045"/>
    <trip id="veh51" type="veh_passenger" depart="201.02" departLane="best" departSpeed="max" from="19910433" to="1164110045"/>
    <trip id="veh52" type="veh_passenger" depart="204.97" departLane="best" from="8891351#1" to="1164110035"/>
    <trip id="veh53" type="veh_passenger" depart="208.91" departLane="best" departSpeed="max" from="19910433" to="723381366#2-AddedOnRampEdge"/>
    <trip id="veh54" type="veh_passenger" depart="212.85" departLane="best" departSpeed="max" from="19910433" to="1164110036"/>
    <trip id="veh56" type="veh_passenger" depart="220.73" departLane="best" departSpeed="max" from="386637895" to="8891351#1-AddedOffRampEdge"/>
    <trip id="veh60" type="veh_passenger" depart="236.50" departLane="best" departSpeed="max" from="386637895" to="25497694#1"/>
    <trip id="veh62" type="veh_passenger" depart="244.38" departLane="best" departSpeed="max" from="19910433" to="386637924"/>
    <trip id="veh63" type="veh_passenger" depart="248.32" departLane="best" departSpeed="max" from="386637895" to="1164110045"/>
    <trip id="veh64" type="veh_passenger" depart="252.27" departLane="best" departSpeed="max" from="386637895" to="8891351#3"/>
    <trip id="veh65" type="veh_passenger" depart="256.21" departLane="best" departSpeed="max" from="723381366#0" to="1164110035"/>
    <trip id="veh66" type="veh_passenger" depart="260.15" departLane="best" from="8891351#3-AddedOnRampEdge" to="8891351#3"/>
    <trip id="veh67" type="veh_passenger" depart="264.09" departLane="best" from="8891351#3-AddedOnRampEdge" to="8891351#3"/>
    <trip id="veh68" type="veh_passenger" depart="268.03" departLane="best" departSpeed="max" from="386637895" to="8891351#3-AddedOnRampEdge"/>
    <trip id="veh69" type="veh_passenger" depart="271.97" departLane="best" departSpeed="max" from="19910433" to="8891351#1-AddedOffRampEdge"/>
    <trip id="veh71" type="veh_passenger" depart="279.86" departLane="best" departSpeed="max" from="19910433" to="1164110045"/>
    <trip id="veh75" type="veh_passenger" depart="295.62" departLane="best" departSpeed="max" from="723381366#0" to="8891351#3"/>
    <trip id="veh76" type="veh_passenger" depart="299.56" departLane="best" from="1164110045" to="1164110045"/>
    <trip id="veh77" type="veh_passenger" depart="303.51" departLane="best" departSpeed="max" from="723381366#0" to="723381366#2-AddedOnRampEdge"/>
    <trip id="veh78" type="veh_passenger" depart="307.45" departLane="best" departSpeed="max" from="19910433" to="1164110036"/>
    <trip id="veh80" type="veh_passenger" depart="315.33" departLane="best" departSpeed="max" from="723381366#0" to="723381366#2"/>
    <trip id="veh82" type="veh_passenger" depart="323.21" departLane="best" departSpeed="max" from="723381366#0" to="8891351#3"/>
    <trip id="veh83" type="veh_passenger" depart="327.16" departLane="best" departSpeed="max" from="19910433" to="8891351#1"/>
    <trip id="veh86" type="veh_passenger" depart="338.98" departLane="best" from="1164110045" to="1164110045"/>
    <trip id="veh87" type="veh_passenger" depart="342.92" departLane="best" from="8891351#1-AddedOffRampEdge" to="8891351#3"/>
    <trip id="veh89" type="veh_passenger" depart="350.81" departLane="best" from="723381366#0-AddedOffRampEdge" to="8891351#3-AddedOnRampEdge"/>
    <trip id="veh90" type="veh_passenger" depart="354.75" departLane="best" from="723381366#2" to="1164110035"/>
    <trip id="veh93" type="veh_passenger" depart="366.57" departLane="best" departSpeed="max" from="19910433" to="1164110035"/>
    <trip id="veh97" type="veh_passenger" depart="382.34" departLane="best" departSpeed="max" from="723381366#0" to="8891351#3"/>
    <trip id="veh98" type="veh_passenger" depart="386.28" departLane="best" from="8891351#1" to="1164110035"/>
    <trip id="veh99" type="veh_passenger" depart="390.22" departLane="best" departSpeed="max" from="386637895" to="1164110045"/>
    <trip id="veh105" type="veh_passenger" depart="413.87" departLane="best" departSpeed="max" from="19910433" to="1164110036"/>
    <trip id="veh106" type="veh_passenger" depart="417.81" departLane="best" from="25497694#1-AddedOnRampEdge" to="8891351#3"/>
    <trip id="veh107" type="veh_passenger" depart="421.76" departLane="best" departSpeed="max" from="730464143" to="8891351#3"/>
    <trip id="veh109" type="veh_passenger" depart="429.64" departLane="best" departSpeed="max" from="19910433" to="1164110035"/>
    <trip id="veh110" type="veh_passenger" depart="433.58" departLane="best" departSpeed="max" from="730464143" to="8891351#3"/>
    <trip id="veh111" type="veh_passenger" depart="437.52" departLane="best" from="8891351#1-AddedOffRampEdge" to="8891351#3-AddedOnRampEdge"/>
    <trip id="veh112" type="veh_passenger" depart="441.46" departLane="best" from="8891351#0" to="8891351#3"/>
    <trip id="veh114" type="veh_passenger" depart="449.35" departLane="best" departSpeed="max" from="730464143" to="8891351#3"/>
    <trip id="veh116" type="veh_passenger" depart="457.23" departLane="best" departSpeed="max" from="730464143" to="1164110035"/>
    <trip id="veh117" type="veh_passenger" depart="461.17" departLane="best" from="8891351#1-AddedOffRampEdge" to="8891351#3"/>
    <trip id="veh120" type="veh_passenger" depart="473.00" departLane="best" from="1164110036" to="1164110045"/>
    <trip id="veh130" type="veh_passenger" depart="512.41" departLane="best" departSpeed="max" from="19910433" to="8891351#0"/>
    <trip id="veh131" type="veh_passenger" depart="516.36" departLane="best" from="1164110036" to="8891351#3"/>
    <trip id="veh133" type="veh_passenger" depart="524.24" departLane="best" from="25497694#1-AddedOnRampEdge" to="8891351#3"/>
    <trip id="veh136" type="veh_passenger" depart="536.06" departLane="best" departSpeed="max" from="386637895" to="1164110045"/>
    <trip id="veh140" type="veh_passenger" depart="551.83" departLane="best" from="1164110036" to="1164110045"/>
    <trip id="veh142" type="veh_passenger" depart="559.71" departLane="best" departSpeed="max" from="386637895" to="1164110045"/>
    <trip id="veh143" type="veh_passenger" depart="563.65" departLane="best" departSpeed="max" from="386637895" to="8891351#3"/>
    <trip id="veh146" type="veh_passenger" depart="575.48" departLane="best" departSpeed="max" from="19910433" to="1164110035"/>
    <trip id="veh147" type="veh_passenger" depart="579.42" departLane="best" departSpeed="max" from="19910433" to="709496387"/>
    <trip id="veh148" type="veh_passenger" depart="583.36" departLane="best" from="8891351#1" to="1164110035"/>
    <trip id="veh149" type="veh_passenger" depart="587.30" departLane="best" departSpeed="max" from="19910433" to="8891351#0"/>
    <trip id="veh150" type="veh_passenger" depart="591.25" departLane="best" from="723381366#2" to="1164110035"/>
    <trip id="veh151" type="veh_passenger" depart="595.19" departLane="best" departSpeed="max" from="723381366#0" to="1164110035"/>
    <trip id="veh152" type="veh_passenger" depart="599.13" departLane="best" departSpeed="max" from="386637895" to="8891351#2"/>
    <trip id="veh154" type="veh_passenger" depart="607.01" departLane="best" from="723381366#0-AddedOffRampEdge" to="8891351#3"/>
    <trip id="veh156" type="veh_passenger" depart="614.90" departLane="best" departSpeed="max" from="386637895" to="1164110045"/>
    <trip id="veh157" type="veh_passenger" depart="618.84" departLane="best" departSpeed="max" from="19910433" to="723381366#2"/>
    <trip id="veh159" type="veh_passenger" depart="626.72" departLane="best" from="1164110045" to="1164110045"/>
    <trip id="veh161" type="veh_passenger" depart="634.60" departLane="best" departSpeed="max" from="19910433" to="8891351#0"/>
    <trip id="veh162" type="veh_passenger" depart="638.55" departLane="best" from="723381366#2-AddedOnRampEdge" to="1164110035"/>
    <trip id="veh164" type="veh_passenger" depart="646.43" departLane="best" departSpeed="max" from="386637895" to="1164110045"/>
    <trip id="veh165" type="veh_passenger" depart="650.37" departLane="best" departSpeed="max" from="386637895" to="8891351#3"/>
    <trip id="veh168" type="veh_passenger" depart="662.20" departLane="best" from="8891351#1" to="8891351#3"/>
    <trip id="veh169" type="veh_passenger" depart="666.14" departLane="best" departSpeed="max" from="386637895" to="8891351#1-AddedOffRampEdge"/>
    <trip id="veh170" type="veh_passenger" depart="670.08" departLane="best" departSpeed="max" from="723381366#0" to="723381366#1"/>
    <trip id="veh171" type="veh_passenger" depart="674.02" departLane="best" departSpeed="max" from="19910433" to="1164110045"/>
    <trip id="veh175" type="veh_passenger" depart="689.79" departLane="best" from="723381366#0-AddedOffRampEdge" to="1164110035"/>
    <trip id="veh177" type="veh_passenger" depart="697.67" departLane="best" departSpeed="max" from="19910433" to="709496387"/>
    <trip id="veh178" type="veh_passenger" depart="701.61" departLane="best" departSpeed="max" from="19910433" to="19910433"/>
    <trip id="veh179" type="veh_passenger" depart="705.55" departLane="best" departSpeed="max" from="730464143" to="8891351#3"/>
    <trip id="veh180" type="veh_passenger" depart="709.50" departLane="best" departSpeed="max" from="19910433" to="1164110035"/>
    <trip id="veh183" type="veh_passenger" depart="721.32" departLane="best" departSpeed="max" from="19910433" to="723381366#2-AddedOnRampEdge"/>
    <trip id="veh185" type="veh_passenger" depart="729.20" departLane="best" departSpeed="max" from="730464143" to="1164110035"/>
    <trip id="veh186" type="veh_passenger" depart="733.15" departLane="best" from="8891351#0" to="8891351#3-AddedOnRampEdge"/>
    <trip id="veh188" type="veh_passenger" depart="741.03" departLane="best" departSpeed="max" from="730464143" to="1164110035"/>
    <trip id="veh189" type="veh_passenger" depart="744.97" departLane="best" departSpeed="max" from="19910433" to="8891351#3-AddedOnRampEdge"/>
    <trip id="veh190" type="veh_passenger" depart="748.91" departLane="best" departSpeed="max" from="386637895" to="25497694#1-AddedOnRampEdge"/>
    <trip id="veh192" type="veh_passenger" depart="756.80" departLane="best" from="8891351#1" to="8891351#3"/>
    <trip id="veh193" type="veh_passenger" depart="760.74" departLane="best" departSpeed="max" from="129195494" to="8891351#3"/>
    <trip id="veh195" type="veh_passenger" depart="768.62" departLane="best" from="723381366#2-AddedOnRampEdge" to="386637924"/>
    <trip id="veh196" type="veh_passenger" depart="772.56" departLane="best" departSpeed="max" from="730464143" to="8891351#3-AddedOnRampEdge"/>
    <trip id="veh197" type="veh_passenger" depart="776.50" departLane="best" from="25497694#1" to="8891351#2"/>
    <trip id="veh199" type="veh_passenger" depart="784.39" departLane="best" departSpeed="max" from="386637895" to="8891351#1"/>
    <trip id="veh200" type="veh_passenger" depart="788.33" departLane="best" from="25497694#1" to="8891351#3"/>
    <trip id="veh201" type="veh_passenger" depart="792.27" departLane="best" from="8891351#0" to="1164110035"/>
    <trip id="veh204" type="veh_passenger" depart="804.09" departLane="best" departSpeed="max" from="19910433" to="8891351#2"/>
    <trip id="veh207" type="veh_passenger" depart="815.92" departLane="best" from="1164110036" to="8891351#3"/>
    <trip id="veh210" type="veh_passenger" depart="827.74" departLane="best" departSpeed="max" from="129195494" to="1164110045"/>
    <trip id="veh212" type="veh_passenger" depart="835.63" departLane="best" departSpeed="max" from="723381366#0" to="386637924"/>
    <trip id="veh214" type="veh_passenger" depart="843.51" departLane="best" departSpeed="max" from="19910433" to="1164110036"/>
    <trip id="veh215" type="veh_passenger" depart="847.45" departLane="best" departSpeed="max" from="19910433" to="1164110036"/>
    <trip id="veh217" type="veh_passenger" depart="855.34" departLane="best" departSpeed="max" from="19910433" to="1164110045"/>
    <trip id="veh220" type="veh_passenger" depart="867.16" departLane="best" from="25497694#1" to="1164110035"/>
    <trip id="veh221" type="veh_passenger" depart="871.10" departLane="best" departSpeed="max" from="19910433" to="1164110045"/>
    <trip id="veh222" type="veh_passenger" depart="875.04" departLane="best" departSpeed="max" from="19910433" to="1164110035"/>
    <trip id="veh225" type="veh_passenger" depart="886.87" departLane="best" departSpeed="max" from="19910433" to="1164110035"/>
    <trip id="veh231" type="veh_passenger" depart="910.52" departLane="best" departSpeed="max" from="723381366#0" to="386637924"/>
    <trip id="veh232" type="veh_passenger" depart="914.46" departLane="best" departSpeed="max" from="386637895" to="8891351#3"/>
    <trip id="veh233" type="veh_passenger" depart="918.40" departLane="best" from="723381366#0-AddedOffRampEdge" to="723381366#1"/>
    <trip id="veh234" type="veh_passenger" depart="922.34" departLane="best" departSpeed="max" from="730464143" to="8891351#3"/>
    <trip id="veh235" type="veh_passenger" depart="926.29" departLane="best" departSpeed="max" from="19910433" to="1164110045"/>
    <trip id="veh236" type="veh_passenger" depart="930.23" departLane="best" departSpeed="max" from="19910433" to="1164110035"/>
    <trip id="veh237" type="veh_passenger" depart="934.17" departLane="best" departSpeed="max" from="19910433" to="8891351#0"/>
    <trip id="veh242" type="veh_passenger" depart="953.88" departLane="best" from="8891351#0" to="1164110035"/>
    <trip id="veh243" type="veh_passenger" depart="957.82" departLane="best" departSpeed="max" from="19910433" to="19910433"/>
    <trip id="veh246" type="veh_passenger" depart="969.64" departLane="best" departSpeed="max" from="723381366#0" to="1164110035"/>
    <trip id="veh247" type="veh_passenger" depart="973.59" departLane="best" from="25497694#1-AddedOnRampEdge" to="1164110045"/>
    <trip id="veh248" type="veh_passenger" depart="977.53" departLane="best" departSpeed="max" from="129195494" to="8891351#3"/>
    <trip id="veh251" type="veh_passenger" depart="989.35" departLane="best" departSpeed="max" from="386637895" to="723381366#2-AddedOnRampEdge"/>
    <trip id="veh252" type="veh_passenger" depart="993.29" departLane="best" departSpeed="max" from="723381366#0" to="723381366#2"/>
    <trip id="veh253" type="veh_passenger" depart="997.24" departLane="best" departSpeed="max" from="723381366#0" to="1164110035"/>
    <trip id="veh257" type="veh_passenger" depart="1013.00" departLane="best" from="25497694#1" to="8891351#3"/>
    <trip id="veh260" type="veh_passenger" depart="1024.83" departLane="best" from="25497694#1-AddedOnRampEdge" to="8891351#3-AddedOnRampEdge"/>
    <trip id="veh264" type="veh_passenger" depart="1040.59" departLane="best" departSpeed="max" from="19910433" to="25497694#1"/>
    <trip id="veh266" type="veh_passenger" depart="1048.48" departLane="best" departSpeed="max" from="723381366#0" to="8891351#3"/>
    <trip id="veh267" type="veh_passenger" depart="1052.42" departLane="best" departSpeed="max" from="386637895" to="8891351#0"/>
    <trip id="veh268" type="veh_passenger" depart="1056.36" departLane="best" departSpeed="max" from="19910433" to="8891351#3-AddedOnRampEdge"/>
    <trip id="veh271" type="veh_passenger" depart="1068.18" departLane="best" departSpeed="max" from="723381366#0" to="1164110035"/>
    <trip id="veh272" type="veh_passenger" depart="1072.13" departLane="best" from="8891351#3-AddedOnRampEdge" to="8891351#3"/>
    <trip id="veh273" type="veh_passenger" depart="1076.07" departLane="best" from="25497694#1" to="8891351#3"/>
    <trip id="veh276" type="veh_passenger" depart="1087.89" departLane="best" from="8891351#1-AddedOffRampEdge" to="8891351#3"/>
    <trip id="veh277" type="veh_passenger" depart="1091.83" departLane="best" from="25497694#1" to="8891351#2"/>
    <trip id="veh278" type="veh_passenger" depart="1095.78" departLane="best" departSpeed="max" from="386637895" to="8891351#3"/>
    <trip id="veh279" type="veh_passenger" depart="1099.72" departLane="best" departSpeed="max" from="723381366#0" to="8891351#3"/>
    <trip id="veh280" type="veh_passenger" depart="1103.66" departLane="best" from="25497694#1" to="1164110045"/>
    <trip id="veh281" type="veh_passenger" depart="1107.60" departLane="best" departSpeed="max" from="723381366#0" to="8891351#3-AddedOnRampEdge"/>
    <trip id="veh284" type="veh_passenger" depart="1119.43" departLane="best" departSpeed="max" from="723381366#0" to="723381366#0"/>
    <trip id="veh286" type="veh_passenger" depart="1127.31" departLane="best" departSpeed="max" from="19910433" to="8891351#0"/>
    <trip id="veh287" type="veh_passenger" depart="1131.25" departLane="best" departSpeed="max" from="730464143" to="1164110035"/>
    <trip id="veh290" type="veh_passenger" depart="1143.08" departLane="best" from="1164110036-AddedOnRampEdge" to="709496387"/>
    <trip id="veh291" type="veh_passenger" depart="1147.02" departLane="best" departSpeed="max" from="723381366#0" to="8891351#3"/>
    <trip id="veh294" type="veh_passenger" depart="1158.84" departLane="best" departSpeed="max" from="386637895" to="8891351#3-AddedOnRampEdge"/>
    <trip id="veh297" type="veh_passenger" depart="1170.67" departLane="best" from="8891351#1" to="8891351#3"/>
    <trip id="veh299" type="veh_passenger" depart="1178.55" departLane="best" from="8891351#1-AddedOffRampEdge" to="1164110035"/>
    <trip id="veh300" type="veh_passenger" depart="1182.49" departLane="best" from="8891351#2" to="8891351#3-AddedOnRampEdge"/>
    <trip id="veh301" type="veh_passenger" depart="1186.43" departLane="best" departSpeed="max" from="730464143" to="386637924"/>
    <trip id="veh303" type="veh_passenger" depart="1194.32" departLane="best" departSpeed="max" from="19910433" to="709496387"/>
    <trip id="veh305" type="veh_passenger" depart="1202.20" departLane="best" departSpeed="max" from="19910433" to="1164110035"/>
    <trip id="veh306" type="veh_passenger" depart="1206.14" departLane="best" departSpeed="max" from="19910433" to="709496387"/>
    <trip id="veh307" type="veh_passenger" depart="1210.08" departLane="best" departSpeed="max" from="19910433" to="1164110045"/>
    <trip id="veh308" type="veh_passenger" depart="1214.03" departLane="best" from="1164110036" to="8891351#2"/>
    <trip id="veh309" type="veh_passenger" depart="1217.97" departLane="best" departSpeed="max" from="19910433" to="386637924"/>
    <trip id="veh311" type="veh_passenger" depart="1225.85" departLane="best" from="723381366#1" to="386637924"/>
    <trip id="veh312" type="veh_passenger" depart="1229.79" departLane="best" departSpeed="max" from="19910433" to="25497694#1-AddedOnRampEdge"/>
    <trip id="veh313" type="veh_passenger" depart="1233.73" departLane="best" departSpeed="max" from="723381366#0" to="723381366#0-AddedOffRampEdge"/>
    <trip id="veh317" type="veh_passenger" depart="1249.50" departLane="best" departSpeed="max" from="723381366#0" to="8891351#3"/>
    <trip id="veh318" type="veh_passenger" depart="1253.44" departLane="best" from="25497694#1" to="8891351#2"/>
    <trip id="veh320" type="veh_passenger" depart="1261.33" departLane="best" from="723381366#1" to="723381366#2"/>
    <trip id="veh325" type="veh_passenger" depart="1281.03" departLane="best" departSpeed="max" from="730464143" to="1164110035"/>
    <trip id="veh326" type="veh_passenger" depart="1284.98" departLane="best" departSpeed="max" from="19910433" to="1164110036"/>
    <trip id="veh327" type="veh_passenger" depart="1288.92" departLane="best" departSpeed="max" from="723381366#0" to="8891351#3-AddedOnRampEdge"/>
    <trip id="veh328" type="veh_passenger" depart="1292.86" departLane="best" departSpeed="max" from="723381366#0" to="8891351#3"/>
    <trip id="veh332" type="veh_passenger" depart="1308.63" departLane="best" from="8891351#3-AddedOnRampEdge" to="8891351#3"/>
    <trip id="veh333" type="veh_passenger" depart="1312.57" departLane="best" departSpeed="max" from="730464143" to="8891351#3-AddedOnRampEdge"/>
    <trip id="veh334" type="veh_passenger" depart="1316.51" departLane="best" departSpeed="max" from="386637895" to="8891351#2"/>
    <trip id="veh335" type="veh_passenger" depart="1320.45" departLane="best" departSpeed="max" from="386637895" to="723381366#2-AddedOnRampEdge"/>
    <trip id="veh337" type="veh_passenger" depart="1328.33" departLane="best" from="8891351#0" to="8891351#3"/>
    <trip id="veh338" type="veh_passenger" depart="1332.27" departLane="best" departSpeed="max" from="129195494" to="1164110045"/>
    <trip id="veh339" type="veh_passenger" depart="1336.22" departLane="best" from="1164110036" to="8891351#3"/>
    <trip id="veh340" type="veh_passenger" depart="1340.16" departLane="best" departSpeed="max" from="723381366#0" to="8891351#3"/>
    <trip id="veh341" type="veh_passenger" depart="1344.10" departLane="best" departSpeed="max" from="19910433" to="1164110035"/>
    <trip id="veh342" type="veh_passenger" depart="1348.04" departLane="best" from="8891351#0" to="8891351#3"/>
    <trip id="veh344" type="veh_passenger" depart="1355.92" departLane="best" departSpeed="max" from="129195494" to="8891351#3"/>
    <trip id="veh345" type="veh_passenger" depart="1359.87" departLane="best" departSpeed="max" from="19910433" to="709496387"/>
    <trip id="veh349" type="veh_passenger" depart="1375.63" departLane="best" from="8891351#3" to="8891351#3"/>
    <trip id="veh350" type="veh_passenger" depart="1379.57" departLane="best" departSpeed="max" from="723381366#0" to="8891351#3-AddedOnRampEdge"/>
    <trip id="veh351" type="veh_passenger" depart="1383.52" departLane="best" departSpeed="max" from="19910433" to="1164110036"/>
    <trip id="veh352" type="veh_passenger" depart="1387.46" departLane="best" from="723381366#0-AddedOffRampEdge" to="1164110035"/>
    <trip id="veh355" type="veh_passenger" depart="1399.28" departLane="best" departSpeed="max" from="19910433" to="1164110045"/>
    <trip id="veh356" type="veh_passenger" depart="1403.22" departLane="best" from="1164110036" to="8891351#3"/>
    <trip id="veh357" type="veh_passenger" depart="1407.17" departLane="best" departSpeed="max" from="19910433" to="1164110036"/>
    <trip id="veh358" type="veh_passenger" depart="1411.11" departLane="best" departSpeed="max" from="19910433" to="1164110036-AddedOnRampEdge"/>
    <trip id="veh359" type="veh_passenger" depart="1415.05" departLane="best" from="723381366#2" to="1164110035"/>
    <trip id="veh360" type="veh_passenger" depart="1418.99" departLane="best" from="1164110036" to="8891351#2"/>
    <trip id="veh361" type="veh_passenger" depart="1422.93" departLane="best" departSpeed="max" from="19910433" to="19910433"/>
    <trip id="veh362" type="veh_passenger" depart="1426.87" departLane="best" departSpeed="max" from="19910433" to="1164110035"/>
    <trip id="veh363" type="veh_passenger" depart="1430.82" departLane="best" departSpeed="max" from="129195494" to="709496387"/>
    <trip id="veh365" type="veh_passenger" depart="1438.70" departLane="best" departSpeed="max" from="730464143" to="8891351#3"/>
    <trip id="veh370" type="veh_passenger" depart="1458.41" departLane="best" from="1164110045" to="1164110045"/>
    <trip id="veh371" type="veh_passenger" depart="1462.35" departLane="best" from="25497694#1-AddedOnRampEdge" to="8891351#3-AddedOnRampEdge"/>
    <trip id="veh373" type="veh_passenger" depart="1470.23" departLane="best" from="723381366#0-AddedOffRampEdge" to="1164110035"/>
    <trip id="veh376" type="veh_passenger" depart="1482.06" departLane="best" departSpeed="max" from="386637895" to="1164110045"/>
    <trip id="veh378" type="veh_passenger" depart="1489.94" departLane="best" departSpeed="max" from="386637895" to="723381366#2-AddedOnRampEdge"/>
    <trip id="veh381" type="veh_passenger" depart="1501.77" departLane="best" from="8891351#0" to="1164110035"/>
    <trip id="veh383" type="veh_passenger" depart="1509.65" departLane="best" departSpeed="max" from="723381366#0" to="723381366#0"/>