<?xml version="1.0" encoding="UTF-8"?>

<!-- generated on 2024-06-02 16:07:30.359056 by osmWebWizard.py v1_18_0+0000-03ecfdea036
<configuration>
    <net-file value="C:\Users\hsarw\OneDrive\Desktop\Others\FYP\basic_app\2024-06-02-16-07-24\osm.net.xml.gz"/>
    <output-trip-file value="C:\Users\hsarw\OneDrive\Desktop\Others\FYP\basic_app\2024-06-02-16-07-24\osm.passenger.trips.xml"/>
    <route-file value="C:\Users\hsarw\OneDrive\Desktop\Others\FYP\basic_app\2024-06-02-16-07-24\osm.passenger.rou.xml"/>
    <prefix value="veh"/>
    <trip-attributes value="departLane=&quot;best&quot;"/>
    <fringe-start-attributes value="departSpeed=&quot;max&quot;"/>
    <vehicle-class value="passenger"/>
    <lanes value="True"/>
    <fringe-factor value="5"/>
    <allow-fringe.min-length value="1000.0"/>
    <via-edge-types value="highway.motorway,highway.motorway_link,highway.trunk_link,highway.primary_link,highway.secondary_link,highway.tertiary_link"/>
    <min-distance value="300.0"/>
    <min-distance.fringe value="10.0"/>
    <remove-loops value="True"/>
    <validate value="True"/>
    <insertion-density value="12.0"/>
</configuration>
-->

<!-- generated on 2024-06-02 16:07:30 by Eclipse SUMO duarouter Version 1.18.0
<configuration xmlns:xsi="http://www.w3.org/2001/XMLSchema-instance" xsi:noNamespaceSchemaLocation="http://sumo.dlr.de/xsd/duarouterConfiguration.xsd">

    <input>
        <net-file value="C:\Users\hsarw\OneDrive\Desktop\Others\FYP\basic_app\2024-06-02-16-07-24\osm.net.xml.gz"/>
        <route-files value="C:\Users\hsarw\OneDrive\Desktop\Others\FYP\basic_app\2024-06-02-16-07-24\osm.passenger.trips.xml"/>
    </input>

    <output>
        <output-file value="C:\Users\hsarw\OneDrive\Desktop\Others\FYP\basic_app\2024-06-02-16-07-24\osm.passenger.trips.xml.tmp"/>
        <alternatives-output value="NUL"/>
        <write-trips value="true"/>
    </output>

    <processing>
        <remove-loops value="true"/>
    </processing>

    <time>
        <begin value="0.0"/>
        <end value="3600.0"/>
    </time>

    <report>
        <no-warnings value="true"/>
        <ignore-errors value="true"/>
        <no-step-log value="true"/>
    </report>

</configuration>
-->

<routes xmlns:xsi="http://www.w3.org/2001/XMLSchema-instance" xsi:noNamespaceSchemaLocation="http://sumo.dlr.de/xsd/routes_file.xsd">
    <vType id="veh_passenger" vClass="passenger"/>
    <trip id="veh0" type="veh_passenger" depart="0.00" departLane="best" departSpeed="max" from="312651884#0" to="312645512#2"/>
    <trip id="veh1" type="veh_passenger" depart="46.05" departLane="best" departSpeed="max" from="-46138135" to="312654701#1"/>
    <trip id="veh3" type="veh_passenger" depart="138.15" departLane="best" from="44122832#3" to="312654701#1"/>
    <trip id="veh4" type="veh_passenger" depart="184.20" departLane="best" departSpeed="max" from="-46138135" to="312654701#1"/>
    <trip id="veh6" type="veh_passenger" depart="276.30" departLane="best" departSpeed="max" from="-4296469#1" to="-320894149"/>
    <trip id="veh9" type="veh_passenger" depart="414.45" departLane="best" departSpeed="max" from="717741321#0" to="312654701#1"/>
    <trip id="veh10" type="veh_passenger" depart="460.50" departLane="best" departSpeed="max" from="-4296469#1" to="1121001234"/>
    <trip id="veh11" type="veh_passenger" depart="506.55" departLane="best" departSpeed="max" from="-4296469#1" to="1121001234"/>
    <trip id="veh12" type="veh_passenger" depart="552.60" departLane="best" departSpeed="max" from="312651884#0" to="1121001234"/>
    <trip id="veh13" type="veh_passenger" depart="598.65" departLane="best" departSpeed="max" from="-46138135" to="1101404963#1"/>
    <trip id="veh15" type="veh_passenger" depart="690.75" departLane="best" departSpeed="max" from="238682696#0" to="1121001234"/>
    <trip id="veh18" type="veh_passenger" depart="828.90" departLane="best" departSpeed="max" from="312651884#0" to="1121001234"/>
    <trip id="veh19" type="veh_passenger" depart="874.95" departLane="best" from="740848375" to="312654701#1"/>
    <trip id="veh20" type="veh_passenger" depart="921.00" departLane="best" from="740848375" to="312654701#1"/>
    <trip id="veh21" type="veh_passenger" depart="967.05" departLane="best" from="4610364#1" to="312654701#1"/>
    <trip id="veh24" type="veh_passenger" depart="1105.20" departLane="best" from="717741321#1" to="1121001234"/>
    <trip id="veh26" type="veh_passenger" depart="1197.30" departLane="best" from="1122497068#0" to="1158223859#2"/>
    <trip id="veh27" type="veh_passenger" depart="1243.35" departLane="best" departSpeed="max" from="-4296469#1" to="312654701#1"/>
    <trip id="veh28" type="veh_passenger" depart="1289.40" departLane="best" from="717177006#1" to="-320894149"/>
    <trip id="veh29" type="veh_passenger" depart="1335.45" departLane="best" departSpeed="max" from="312651884#0" to="1121001234"/>
    <trip id="veh31" type="veh_passenger" depart="1427.55" departLane="best" departSpeed="max" from="-46138134#2" to="1121001234"/>
    <trip id="veh32" type="veh_passenger" depart="1473.60" departLane="best" departSpeed="max" from="238682696#0" to="312654701#1"/>
    <trip id="veh33" type="veh_passenger" depart="1519.65" departLane="best" from="740848375" to="1121001234"/>
    <trip id="veh35" type="veh_passenger" depart="1611.75" departLane="best" from="717741321#6" to="312654701#1"/>
    <trip id="veh36" type="veh_passenger" depart="1657.80" departLane="best" departSpeed="max" from="312651884#0" to="46138134#2"/>
    <trip id="veh38" type="veh_passenger" depart="1749.90" departLane="best" departSpeed="max" from="717741321#0" to="1121001234"/>
    <trip id="veh39" type="veh_passenger" depart="1795.95" departLane="best" departSpeed="max" from="-46138135" to="312654701#0"/>
    <trip id="veh40" type="veh_passenger" depart="1842.00" departLane="best" departSpeed="max" from="312651884#0" to="1121001234"/>
    <trip id="veh42" type="veh_passenger" depart="1934.10" departLane="best" from="312651884#3" to="1121001234"/>
    <trip id="veh43" type="veh_passenger" depart="1980.15" departLane="best" departSpeed="max" from="312651884#0" to="-320894149"/>
    <trip id="veh44" type="veh_passenger" depart="2026.20" departLane="best" departSpeed="max" from="312651884#0" to="-740848375"/>
    <trip id="veh45" type="veh_passenger" depart="2072.25" departLane="best" departSpeed="max" from="312651884#0" to="312651884#4"/>
    <trip id="veh46" type="veh_passenger" depart="2118.30" departLane="best" from="717741321#8" to="312654701#1"/>
    <trip id="veh49" type="veh_passenger" depart="2256.45" departLane="best" from="717741321#2" to="1121001234"/>
    <trip id="veh52" type="veh_passenger" depart="2394.60" departLane="best" departSpeed="max" from="-46138134#2" to="-320894149"/>
    <trip id="veh53" type="veh_passenger" depart="2440.65" departLane="best" departSpeed="max" from="-4296469#1" to="312654701#1"/>
    <trip id="veh55" type="veh_passenger" depart="2532.75" departLane="best" departSpeed="max" from="717177006#0" to="1121001234"/>
    <trip id="veh56" type="veh_passenger" depart="2578.80" departLane="best" from="44122832#1" to="1121001234"/>
    <trip id="veh57" type="veh_passenger" depart="2624.85" departLane="best" departSpeed="max" from="312651884#0" to="1121001234"/>
    <trip id="veh58" type="veh_passenger" depart="2670.90" departLane="best" from="44122832#1" to="1121001234"/>
    <trip id="veh60" type="veh_passenger" depart="2763.00" departLane="best" from="717741321#3" to="312654701#1"/>
    <trip id="veh61" type="veh_passenger" depart="2809.05" departLane="best" departSpeed="max" from="717741321#0" to="312654701#1"/>
    <trip id="veh62" type="veh_passenger" depart="2855.10" departLane="best" departSpeed="max" from="-46138134#2" to="-320894149"/>
    <trip id="veh63" type="veh_passenger" depart="2901.15" departLane="best" from="717741321#3" to="1121001234"/>
    <trip id="veh67" type="veh_passenger" depart="3085.35" departLane="best" departSpeed="max" from="717741321#0" to="1121001234"/>
    <trip id="veh68" type="veh_passenger" depart="3131.40" departLane="best" from="717177006#2" to="-320894149"/>
    <trip id="veh71" type="veh_passenger" depart="3269.55" departLane="best" departSpeed="max" from="717741321#0" to="1121001234"/>
    <trip id="veh73" type="veh_passenger" depart="3361.65" departLane="best" from="717741321#8" to="1121001234"/>
    <trip id="veh74" type="veh_passenger" depart="3407.70" departLane="best" from="740848375" to="312654701#1"/>
    <trip id="veh75" type="veh_passenger" depart="3453.75" departLane="best" from="717741321#7" to="1121001234"/>
    <trip id="veh77" type="veh_passenger" depart="3545.85" departLane="best" departSpeed="max" from="320894149" to="312654701#1"/>
</routes>
