<?xml version="1.0" encoding="UTF-8"?>

<!-- generated on 2024-06-02 16:38:55.592685 by osmWebWizard.py v1_18_0+0000-03ecfdea036
<configuration>
    <net-file value="C:\Users\hsarw\OneDrive\Desktop\Others\FYP\basic_app\2024-06-02-16-38-50\osm.net.xml.gz"/>
    <output-trip-file value="C:\Users\hsarw\OneDrive\Desktop\Others\FYP\basic_app\2024-06-02-16-38-50\osm.passenger.trips.xml"/>
    <route-file value="C:\Users\hsarw\OneDrive\Desktop\Others\FYP\basic_app\2024-06-02-16-38-50\osm.passenger.rou.xml"/>
    <prefix value="veh"/>
    <trip-attributes value="departLane=&quot;best&quot;"/>
    <fringe-start-attributes value="departSpeed=&quot;max&quot;"/>
    <vehicle-class value="passenger"/>
    <lanes value="True"/>
    <fringe-factor value="5"/>
    <allow-fringe.min-length value="1000.0"/>
    <via-edge-types value="highway.motorway,highway.motorway_link,highway.trunk_link,highway.primary_link,highway.secondary_link,highway.tertiary_link"/>
    <min-distance value="300.0"/>
    <min-distance.fringe value="10.0"/>
    <remove-loops value="True"/>
    <validate value="True"/>
    <insertion-density value="12.0"/>
</configuration>
-->

<!-- generated on 2024-06-02 16:38:55 by Eclipse SUMO duarouter Version 1.18.0
<configuration xmlns:xsi="http://www.w3.org/2001/XMLSchema-instance" xsi:noNamespaceSchemaLocation="http://sumo.dlr.de/xsd/duarouterConfiguration.xsd">

    <input>
        <net-file value="C:\Users\hsarw\OneDrive\Desktop\Others\FYP\basic_app\2024-06-02-16-38-50\osm.net.xml.gz"/>
        <route-files value="C:\Users\hsarw\OneDrive\Desktop\Others\FYP\basic_app\2024-06-02-16-38-50\osm.passenger.trips.xml"/>
    </input>

    <output>
        <output-file value="C:\Users\hsarw\OneDrive\Desktop\Others\FYP\basic_app\2024-06-02-16-38-50\osm.passenger.trips.xml.tmp"/>
        <alternatives-output value="NUL"/>
        <write-trips value="true"/>
    </output>

    <processing>
        <remove-loops value="true"/>
    </processing>

    <time>
        <begin value="0.0"/>
        <end value="3600.0"/>
    </time>

    <report>
        <no-warnings value="true"/>
        <ignore-errors value="true"/>
        <no-step-log value="true"/>
    </report>

</configuration>
-->

<routes xmlns:xsi="http://www.w3.org/2001/XMLSchema-instance" xsi:noNamespaceSchemaLocation="http://sumo.dlr.de/xsd/routes_file.xsd">
    <vType id="veh_passenger" vClass="passenger"/>
    <trip id="veh0" type="veh_passenger" depart="0.00" departLane="best" from="-113083588#5" to="-113083588#2"/>
    <trip id="veh1" type="veh_passenger" depart="50.83" departLane="best" from="-113083605#2" to="-35392231#0"/>
    <trip id="veh2" type="veh_passenger" depart="101.66" departLane="best" from="35392231#2" to="113083588#5"/>
    <trip id="veh3" type="veh_passenger" depart="152.50" departLane="best" from="35392231#1" to="113083588#2"/>
    <trip id="veh4" type="veh_passenger" depart="203.33" departLane="best" from="-113083605#0" to="113083578"/>
    <trip id="veh5" type="veh_passenger" depart="254.16" departLane="best" departSpeed="max" from="-113083578" to="-35392231#0"/>
    <trip id="veh6" type="veh_passenger" depart="304.99" departLane="best" from="-113083588#5" to="113083578"/>
    <trip id="veh7" type="veh_passenger" depart="355.83" departLane="best" departSpeed="max" from="35392231#0" to="113083588#1"/>
    <trip id="veh8" type="veh_passenger" depart="406.66" departLane="best" departSpeed="max" from="35392231#0" to="113083605#1"/>
    <trip id="veh9" type="veh_passenger" depart="457.49" departLane="best" departSpeed="max" from="-113083578" to="113083588#5"/>
    <trip id="veh10" type="veh_passenger" depart="508.32" departLane="best" departSpeed="max" from="35392231#0" to="113083588#3"/>
    <trip id="veh11" type="veh_passenger" depart="559.15" departLane="best" departSpeed="max" from="35392231#0" to="113083605#3"/>
    <trip id="veh12" type="veh_passenger" depart="609.99" departLane="best" departSpeed="max" from="-113083605#3" to="113083578"/>
    <trip id="veh13" type="veh_passenger" depart="660.82" departLane="best" departSpeed="max" from="35392231#0" to="113083588#4"/>
    <trip id="veh14" type="veh_passenger" depart="711.65" departLane="best" from="35392231#1" to="113083588#2"/>
    <trip id="veh15" type="veh_passenger" depart="762.48" departLane="best" from="-113083605#0" to="-35392231#0"/>
    <trip id="veh16" type="veh_passenger" depart="813.32" departLane="best" departSpeed="max" from="-113083578" to="-35392231#0"/>
    <trip id="veh17" type="veh_passenger" depart="864.15" departLane="best" departSpeed="max" from="-113083578" to="-35392231#0"/>
    <trip id="veh18" type="veh_passenger" depart="914.98" departLane="best" from="-113083588#4" to="-91602583"/>
    <trip id="veh19" type="veh_passenger" depart="965.81" departLane="best" departSpeed="max" from="-113083605#3" to="-35392231#0"/>
    <trip id="veh20" type="veh_passenger" depart="1016.64" departLane="best" from="-113083588#4" to="113083605#3"/>
    <trip id="veh21" type="veh_passenger" depart="1067.48" departLane="best" from="-113083588#3" to="-91602583"/>
    <trip id="veh22" type="veh_passenger" depart="1118.31" departLane="best" from="91602584#1" to="113083588#5"/>
    <trip id="veh23" type="veh_passenger" depart="1169.14" departLane="best" departSpeed="max" from="35392231#0" to="113083605#3"/>
    <trip id="veh24" type="veh_passenger" depart="1219.97" departLane="best" departSpeed="max" from="-113083605#3" to="-35392231#0"/>
    <trip id="veh25" type="veh_passenger" depart="1270.81" departLane="best" from="-113083588#5" to="-91602584#0"/>
    <trip id="veh26" type="veh_passenger" depart="1321.64" departLane="best" from="-786112551#0" to="113083578"/>
    <trip id="veh27" type="veh_passenger" depart="1372.47" departLane="best" from="-113083605#2" to="-35392231#0"/>
    <trip id="veh28" type="veh_passenger" depart="1423.30" departLane="best" from="-113083588#1" to="-35392231#0"/>
    <trip id="veh29" type="veh_passenger" depart="1474.13" departLane="best" from="-113083606" to="-35392231#0"/>
    <trip id="veh30" type="veh_passenger" depart="1524.97" departLane="best" from="91602584#1" to="113083578"/>
    <trip id="veh31" type="veh_passenger" depart="1575.80" departLane="best" departSpeed="max" from="-113083578" to="113083588#3"/>
    <trip id="veh32" type="veh_passenger" depart="1626.63" departLane="best" from="113083588#1" to="113083588#4"/>
    <trip id="veh33" type="veh_passenger" depart="1677.46" departLane="best" departSpeed="max" from="35392231#0" to="91602584#1"/>
    <trip id="veh34" type="veh_passenger" depart="1728.30" departLane="best" departSpeed="max" from="-113083578" to="-91602583"/>
    <trip id="veh35" type="veh_passenger" depart="1779.13" departLane="best" from="91602584#1" to="113083578"/>
    <trip id="veh36" type="veh_passenger" depart="1829.96" departLane="best" departSpeed="max" from="-113083578" to="113083605#2"/>
    <trip id="veh37" type="veh_passenger" depart="1880.79" departLane="best" from="113083605#1" to="113083578"/>
    <trip id="veh38" type="veh_passenger" depart="1931.62" departLane="best" from="-113083605#2" to="113083588#5"/>
    <trip id="veh39" type="veh_passenger" depart="1982.46" departLane="best" from="-91602583" to="-35392231#0"/>
    <trip id="veh40" type="veh_passenger" depart="2033.29" departLane="best" departSpeed="max" from="-113083605#3" to="113083588#5"/>
    <trip id="veh41" type="veh_passenger" depart="2084.12" departLane="best" departSpeed="max" from="35392231#0" to="113083578"/>
    <trip id="veh42" type="veh_passenger" depart="2134.95" departLane="best" departSpeed="max" from="35392231#0" to="113083578"/>
    <trip id="veh43" type="veh_passenger" depart="2185.78" departLane="best" departSpeed="max" from="-113083578" to="786112551#0"/>
    <trip id="veh44" type="veh_passenger" depart="2236.62" departLane="best" departSpeed="max" from="-113083578" to="786112551#1"/>
    <trip id="veh45" type="veh_passenger" depart="2287.45" departLane="best" from="35392231#2" to="113083606"/>
    <trip id="veh46" type="veh_passenger" depart="2338.28" departLane="best" from="35392231#2" to="-866240153"/>
    <trip id="veh47" type="veh_passenger" depart="2389.11" departLane="best" departSpeed="max" from="-113083578" to="113083605#3"/>
    <trip id="veh48" type="veh_passenger" depart="2439.95" departLane="best" departSpeed="max" from="35392231#0" to="-113083605#1"/>
    <trip id="veh49" type="veh_passenger" depart="2490.78" departLane="best" from="35392231#2" to="113083578"/>
    <trip id="veh50" type="veh_passenger" depart="2541.61" departLane="best" from="-35392231#1" to="-35392231#0"/>
    <trip id="veh51" type="veh_passenger" depart="2592.44" departLane="best" from="-113083588#5" to="-35392231#1"/>
    <trip id="veh52" type="veh_passenger" depart="2643.27" departLane="best" from="91602584#1" to="113083588#5"/>
    <trip id="veh53" type="veh_passenger" depart="2694.11" departLane="best" from="-786112551#0" to="113083578"/>
    <trip id="veh54" type="veh_passenger" depart="2744.94" departLane="best" from="-113083588#1" to="-35392231#0"/>
    <trip id="veh55" type="veh_passenger" depart="2795.77" departLane="best" from="-113083605#0" to="-35392231#0"/>
    <trip id="veh56" type="veh_passenger" depart="2846.60" departLane="best" departSpeed="max" from="-113083578" to="113083588#4"/>
    <trip id="veh57" type="veh_passenger" depart="2897.44" departLane="best" from="35392231#1" to="113083588#4"/>
    <trip id="veh58" type="veh_passenger" depart="2948.27" departLane="best" departSpeed="max" from="35392231#0" to="113083606"/>
    <trip id="veh59" type="veh_passenger" depart="2999.10" departLane="best" departSpeed="max" from="-113083578" to="786112551#1"/>
    <trip id="veh60" type="veh_passenger" depart="3049.93" departLane="best" from="35392231#1" to="113083578"/>
    <trip id="veh61" type="veh_passenger" depart="3100.76" departLane="best" from="91602584#1" to="113083588#5"/>
    <trip id="veh62" type="veh_passenger" depart="3151.60" departLane="best" from="-35392231#1" to="-35392231#0"/>
    <trip id="veh63" type="veh_passenger" depart="3202.43" departLane="best" from="-113083588#4" to="113083578"/>
    <trip id="veh64" type="veh_passenger" depart="3253.26" departLane="best" from="-35392231#1" to="-35392231#0"/>
    <trip id="veh65" type="veh_passenger" depart="3304.09" departLane="best" departSpeed="max" from="35392231#0" to="-113083605#2"/>
    <trip id="veh66" type="veh_passenger" depart="3354.93" departLane="best" from="-91602583" to="-35392231#0"/>
    <trip id="veh67" type="veh_passenger" depart="3405.76" departLane="best" from="-113083588#3" to="-35392231#0"/>
    <trip id="veh68" type="veh_passenger" depart="3456.59" departLane="best" from="91602584#0" to="113083588#2"/>
    <trip id="veh69" type="veh_passenger" depart="3507.42" departLane="best" departSpeed="max" from="-113083578" to="113083588#2"/>
    <trip id="veh70" type="veh_passenger" depart="3558.25" departLane="best" departSpeed="max" from="-113083578" to="-113083606"/>
</routes>
