<?xml version="1.0" encoding="UTF-8"?>

<!-- generated on 2024-06-02 17:18:09.484432 by osmWebWizard.py v1_18_0+0000-03ecfdea036
<configuration>
    <net-file value="C:\Users\hsarw\OneDrive\Desktop\Others\FYP\basic_app\2024-06-02-17-17-58\osm.net.xml.gz"/>
    <output-trip-file value="C:\Users\hsarw\OneDrive\Desktop\Others\FYP\basic_app\2024-06-02-17-17-58\osm.passenger.trips.xml"/>
    <route-file value="C:\Users\hsarw\OneDrive\Desktop\Others\FYP\basic_app\2024-06-02-17-17-58\osm.passenger.rou.xml"/>
    <prefix value="veh"/>
    <trip-attributes value="departLane=&quot;best&quot;"/>
    <fringe-start-attributes value="departSpeed=&quot;max&quot;"/>
    <vehicle-class value="passenger"/>
    <lanes value="True"/>
    <fringe-factor value="6.2"/>
    <allow-fringe.min-length value="1000.0"/>
    <via-edge-types value="highway.motorway,highway.motorway_link,highway.trunk_link,highway.primary_link,highway.secondary_link,highway.tertiary_link"/>
    <min-distance value="300.0"/>
    <min-distance.fringe value="10.0"/>
    <remove-loops value="True"/>
    <validate value="True"/>
    <insertion-density value="13.1"/>
</configuration>
-->

<!-- generated on 2024-06-02 17:18:09 by Eclipse SUMO duarouter Version 1.18.0
<configuration xmlns:xsi="http://www.w3.org/2001/XMLSchema-instance" xsi:noNamespaceSchemaLocation="http://sumo.dlr.de/xsd/duarouterConfiguration.xsd">

    <input>
        <net-file value="C:\Users\hsarw\OneDrive\Desktop\Others\FYP\basic_app\2024-06-02-17-17-58\osm.net.xml.gz"/>
        <route-files value="C:\Users\hsarw\OneDrive\Desktop\Others\FYP\basic_app\2024-06-02-17-17-58\osm.passenger.trips.xml"/>
    </input>

    <output>
        <output-file value="C:\Users\hsarw\OneDrive\Desktop\Others\FYP\basic_app\2024-06-02-17-17-58\osm.passenger.trips.xml.tmp"/>
        <alternatives-output value="NUL"/>
        <write-trips value="true"/>
    </output>

    <processing>
        <remove-loops value="true"/>
    </processing>

    <time>
        <begin value="0.0"/>
        <end value="3600.0"/>
    </time>

    <report>
        <no-warnings value="true"/>
        <ignore-errors value="true"/>
        <no-step-log value="true"/>
    </report>

</configuration>
-->

<routes xmlns:xsi="http://www.w3.org/2001/XMLSchema-instance" xsi:noNamespaceSchemaLocation="http://sumo.dlr.de/xsd/routes_file.xsd">
    <vType id="veh_passenger" vClass="passenger"/>
    <trip id="veh0" type="veh_passenger" depart="0.00" departLane="best" departSpeed="max" from="24914992" to="-111833185#0"/>
    <trip id="veh1" type="veh_passenger" depart="11.12" departLane="best" from="534588621#1" to="4610524#0"/>
    <trip id="veh3" type="veh_passenger" depart="33.36" departLane="best" departSpeed="max" from="606078065#0" to="1198409426#2"/>
    <trip id="veh4" type="veh_passenger" depart="44.47" departLane="best" departSpeed="max" from="1151064386#0" to="-1119854969#0"/>
    <trip id="veh5" type="veh_passenger" depart="55.59" departLane="best" departSpeed="max" from="-437325047#2" to="168942727#2"/>
    <trip id="veh6" type="veh_passenger" depart="66.71" departLane="best" from="-1114798610#0" to="-4610351#0"/>
    <trip id="veh7" type="veh_passenger" depart="77.83" departLane="best" departSpeed="max" from="24914992" to="190447766#1"/>
    <trip id="veh8" type="veh_passenger" depart="88.95" departLane="best" departSpeed="max" from="-437325047#2" to="24913519#1"/>
    <trip id="veh9" type="veh_passenger" depart="100.07" departLane="best" from="46140382" to="1101961735#1"/>
    <trip id="veh10" type="veh_passenger" depart="111.19" departLane="best" from="4611707#1" to="327518240#1"/>
    <trip id="veh11" type="veh_passenger" depart="122.31" departLane="best" departSpeed="max" from="-111251382#2" to="234463931#0"/>
    <trip id="veh13" type="veh_passenger" depart="144.54" departLane="best" from="-15971189" to="153698390#2"/>
    <trip id="veh14" type="veh_passenger" depart="155.66" departLane="best" from="-51167934#6" to="-202817674#3"/>
    <trip id="veh16" type="veh_passenger" depart="177.90" departLane="best" from="171826985#2" to="82654059#3"/>
    <trip id="veh18" type="veh_passenger" depart="200.14" departLane="best" from="202157002#2" to="-23121445#1"/>
    <trip id="veh19" type="veh_passenger" depart="211.25" departLane="best" from="541763975" to="22972195#2"/>
    <trip id="veh20" type="veh_passenger" depart="222.37" departLane="best" from="340498976#3" to="-1126465703#0"/>
    <trip id="veh21" type="veh_passenger" depart="233.49" departLane="best" from="4610375#0" to="1079495669#1"/>
    <trip id="veh22" type="veh_passenger" depart="244.61" departLane="best" departSpeed="max" from="-120675240#4" to="465376254#3"/>
    <trip id="veh23" type="veh_passenger" depart="255.73" departLane="best" from="-168940071#5" to="-882389497"/>
    <trip id="veh24" type="veh_passenger" depart="266.85" departLane="best" departSpeed="max" from="24914992" to="1119935543#0"/>
    <trip id="veh26" type="veh_passenger" depart="289.09" departLane="best" from="-51167934#4" to="72157174#1"/>
    <trip id="veh27" type="veh_passenger" depart="300.20" departLane="best" departSpeed="max" from="24914992" to="22972195#2"/>
    <trip id="veh28" type="veh_passenger" depart="311.32" departLane="best" from="1173516144#1" to="340498988#0"/>
    <trip id="veh29" type="veh_passenger" depart="322.44" departLane="best" from="23121445#3" to="1126237668#1"/>
    <trip id="veh30" type="veh_passenger" depart="333.56" departLane="best" from="83517336#4" to="24243107#0"/>
    <trip id="veh31" type="veh_passenger" depart="344.68" departLane="best" from="194073677#3" to="30721660#3"/>
    <trip id="veh32" type="veh_passenger" depart="355.80" departLane="best" from="51167934#3" to="427637455"/>
    <trip id="veh33" type="veh_passenger" depart="366.92" departLane="best" from="4610375#0" to="-1119933622"/>
    <trip id="veh34" type="veh_passenger" depart="378.03" departLane="best" from="1077923225#0" to="234463928#1"/>
    <trip id="veh36" type="veh_passenger" depart="400.27" departLane="best" departSpeed="max" from="606078065#0" to="1111982484"/>
    <trip id="veh37" type="veh_passenger" depart="411.39" departLane="best" from="251884680#0" to="1133992734#1"/>
    <trip id="veh38" type="veh_passenger" depart="422.51" departLane="best" from="606078065#1" to="120675240#4"/>
    <trip id="veh39" type="veh_passenger" depart="433.63" departLane="best" from="195397541#0" to="-6228081#1"/>
    <trip id="veh40" type="veh_passenger" depart="444.75" departLane="best" from="202157002#0" to="541763974"/>
    <trip id="veh41" type="veh_passenger" depart="455.86" departLane="best" departSpeed="max" from="882389497" to="340498982#0"/>
    <trip id="veh42" type="veh_passenger" depart="466.98" departLane="best" from="158023913#1" to="-1126465845"/>
    <trip id="veh43" type="veh_passenger" depart="478.10" departLane="best" from="4610524#0" to="1151064405#1"/>
    <trip id="veh44" type="veh_passenger" depart="489.22" departLane="best" departSpeed="max" from="882389497" to="171826984#2"/>
    <trip id="veh47" type="veh_passenger" depart="522.58" departLane="best" departSpeed="max" from="-188914559" to="1149417521#1"/>
    <trip id="veh49" type="veh_passenger" depart="544.81" departLane="best" departSpeed="max" from="606078065#0" to="-6228081#1"/>
    <trip id="veh50" type="veh_passenger" depart="555.93" departLane="best" from="156364556#1" to="38208961"/>
    <trip id="veh51" type="veh_passenger" depart="567.05" departLane="best" from="606078065#1" to="490365295#0"/>
    <trip id="veh52" type="veh_passenger" depart="578.17" departLane="best" departSpeed="max" from="66071379#1" to="24243101"/>
    <trip id="veh54" type="veh_passenger" depart="600.41" departLane="best" from="4610472#2" to="171826984#2"/>
    <trip id="veh55" type="veh_passenger" depart="611.53" departLane="best" from="-1110526068" to="61584187#1"/>
    <trip id="veh56" type="veh_passenger" depart="622.64" departLane="best" departSpeed="max" from="606078065#0" to="4611699#0"/>
    <trip id="veh57" type="veh_passenger" depart="633.76" departLane="best" from="-743631784#0" to="1158584613"/>
    <trip id="veh58" type="veh_passenger" depart="644.88" departLane="best" from="137630045#1" to="-1123106322#1"/>
    <trip id="veh59" type="veh_passenger" depart="656.00" departLane="best" from="4610362#0" to="-195397541#5"/>
    <trip id="veh60" type="veh_passenger" depart="667.12" departLane="best" from="1195359141" to="-194069450#1"/>
    <trip id="veh61" type="veh_passenger" depart="678.24" departLane="best" from="51167934#2" to="492340367#1"/>
    <trip id="veh62" type="veh_passenger" depart="689.36" departLane="best" departSpeed="max" from="1151064386#0" to="-4610374"/>
    <trip id="veh64" type="veh_passenger" depart="711.59" departLane="best" from="-339201177#4" to="1110526068"/>
    <trip id="veh65" type="veh_passenger" depart="722.71" departLane="best" departSpeed="max" from="882389497" to="24913519#1"/>
    <trip id="veh66" type="veh_passenger" depart="733.83" departLane="best" departSpeed="max" from="1159156576#0" to="171826984#2"/>
    <trip id="veh67" type="veh_passenger" depart="744.95" departLane="best" departSpeed="max" from="-194962375#2" to="4610524#0"/>
    <trip id="veh68" type="veh_passenger" depart="756.07" departLane="best" departSpeed="max" from="-111251382#2" to="202156994#0"/>
    <trip id="veh69" type="veh_passenger" depart="767.19" departLane="best" from="-4610472#0" to="4610524#0"/>
    <trip id="veh70" type="veh_passenger" depart="778.31" departLane="best" from="1198409426#2" to="23852053#1"/>
    <trip id="veh71" type="veh_passenger" depart="789.42" departLane="best" from="-4610375#0" to="55741054"/>
    <trip id="veh72" type="veh_passenger" depart="800.54" departLane="best" from="541763974" to="-1159156576#0"/>
    <trip id="veh73" type="veh_passenger" depart="811.66" departLane="best" departSpeed="max" from="4610524#1" to="-1123150361#1"/>
    <trip id="veh74" type="veh_passenger" depart="822.78" departLane="best" from="437325047#0" to="-195397561#3"/>
    <trip id="veh75" type="veh_passenger" depart="833.90" departLane="best" departSpeed="max" from="68647306#0" to="195397541#5"/>
    <trip id="veh76" type="veh_passenger" depart="845.02" departLane="best" from="1173516144#1" to="437325047#2"/>
    <trip id="veh78" type="veh_passenger" depart="867.26" departLane="best" from="-168940071#1" to="1159142856#1"/>
    <trip id="veh79" type="veh_passenger" depart="878.37" departLane="best" departSpeed="max" from="1151064386#0" to="-136571494#0"/>
    <trip id="veh80" type="veh_passenger" depart="889.49" departLane="best" departSpeed="max" from="380240681" to="606078072#1"/>
    <trip id="veh81" type="veh_passenger" depart="900.61" departLane="best" from="1126465703#1" to="-195411606"/>
    <trip id="veh82" type="veh_passenger" depart="911.73" departLane="best" from="541763975" to="51167934#0"/>
    <trip id="veh83" type="veh_passenger" depart="922.85" departLane="best" departSpeed="max" from="-25294729#1" to="1198409426#0"/>
    <trip id="veh84" type="veh_passenger" depart="933.97" departLane="best" departSpeed="max" from="1151064386#0" to="-882389497"/>
    <trip id="veh85" type="veh_passenger" depart="945.09" departLane="best" departSpeed="max" from="-4611693#4" to="61583423#1"/>
    <trip id="veh87" type="veh_passenger" depart="967.32" departLane="best" departSpeed="max" from="194073677#0" to="-114667396#0"/>
    <trip id="veh88" type="veh_passenger" depart="978.44" departLane="best" departSpeed="max" from="882389497" to="4611707#1"/>
    <trip id="veh89" type="veh_passenger" depart="989.56" departLane="best" from="534588621#0" to="-339201177#0"/>
    <trip id="veh90" type="veh_passenger" depart="1000.68" departLane="best" from="1261128304" to="-4610374"/>
    <trip id="veh91" type="veh_passenger" depart="1011.80" departLane="best" from="1126246695#1" to="-1151064396"/>
    <trip id="veh92" type="veh_passenger" depart="1022.92" departLane="best" from="-234463928#0" to="82654059#3"/>
    <trip id="veh93" type="veh_passenger" depart="1034.04" departLane="best" departSpeed="max" from="1170522571" to="1151064405#1"/>
    <trip id="veh95" type="veh_passenger" depart="1056.27" departLane="best" from="194073677#2" to="340498976#3"/>
    <trip id="veh98" type="veh_passenger" depart="1089.63" departLane="best" from="190447767" to="42103020#2"/>
    <trip id="veh99" type="veh_passenger" depart="1100.75" departLane="best" departSpeed="max" from="-1151064405#1" to="202156991"/>
    <trip id="veh100" type="veh_passenger" depart="1111.87" departLane="best" from="156364570#3" to="465376240#0"/>
    <trip id="veh101" type="veh_passenger" depart="1122.98" departLane="best" from="-222328410" to="82654059#0"/>
    <trip id="veh102" type="veh_passenger" depart="1134.10" departLane="best" from="-222328410" to="606078072#1"/>
    <trip id="veh103" type="veh_passenger" depart="1145.22" departLane="best" departSpeed="max" from="4610524#1" to="194962375#1"/>
    <trip id="veh104" type="veh_passenger" depart="1156.34" departLane="best" departSpeed="max" from="606078065#0" to="-507023458#0"/>
    <trip id="veh105" type="veh_passenger" depart="1167.46" departLane="best" from="202817674#5" to="-23121445#2"/>
    <trip id="veh106" type="veh_passenger" depart="1178.58" departLane="best" departSpeed="max" from="1151064386#0" to="202156991"/>
    <trip id="veh107" type="veh_passenger" depart="1189.70" departLane="best" from="-168940071#8" to="72157174#1"/>
    <trip id="veh108" type="veh_passenger" depart="1200.81" departLane="best" from="339201185" to="831694400#0"/>
    <trip id="veh109" type="veh_passenger" depart="1211.93" departLane="best" departSpeed="max" from="4610524#1" to="1133992734#1"/>
    <trip id="veh111" type="veh_passenger" depart="1234.17" departLane="best" from="1077923225#0" to="42103020#2"/>
    <trip id="veh113" type="veh_passenger" depart="1256.41" departLane="best" from="-120675240#3" to="-4610374"/>
    <trip id="veh115" type="veh_passenger" depart="1278.65" departLane="best" departSpeed="max" from="606078065#0" to="51167934#1"/>
    <trip id="veh117" type="veh_passenger" depart="1300.88" departLane="best" from="492340367#0" to="339201177#0"/>
    <trip id="veh118" type="veh_passenger" depart="1312.00" departLane="best" from="23121445#6" to="82654059#3"/>
    <trip id="veh119" type="veh_passenger" depart="1323.12" departLane="best" from="28016312" to="-750204886#0"/>
    <trip id="veh120" type="veh_passenger" depart="1334.24" departLane="best" from="-195397541#4" to="-168942727#1"/>
    <trip id="veh122" type="veh_passenger" depart="1356.48" departLane="best" from="-534588621#0" to="-202817674#3"/>
    <trip id="veh123" type="veh_passenger" depart="1367.59" departLane="best" from="35578557#2" to="-4610351#0"/>
    <trip id="veh124" type="veh_passenger" depart="1378.71" departLane="best" departSpeed="max" from="24914992" to="-6228081#1"/>
    <trip id="veh125" type="veh_passenger" depart="1389.83" departLane="best" from="136571494#1" to="55741054"/>
    <trip id="veh126" type="veh_passenger" depart="1400.95" departLane="best" departSpeed="max" from="1151064386#0" to="-751595930"/>
    <trip id="veh127" type="veh_passenger" depart="1412.07" departLane="best" departSpeed="max" from="24914992" to="-6228081#1"/>
    <trip id="veh129" type="veh_passenger" depart="1434.31" departLane="best" from="1151064386#1" to="1102369940#1"/>
    <trip id="veh130" type="veh_passenger" depart="1445.43" departLane="best" departSpeed="max" from="-120675240#4" to="51167934#4"/>
    <trip id="veh131" type="veh_passenger" depart="1456.54" departLane="best" departSpeed="max" from="606078065#0" to="190447766#1"/>
    <trip id="veh132" type="veh_passenger" depart="1467.66" departLane="best" from="492340367#1" to="202156991"/>
    <trip id="veh133" type="veh_passenger" depart="1478.78" departLane="best" departSpeed="max" from="-202156991" to="195397541#4"/>
    <trip id="veh134" type="veh_passenger" depart="1489.90" departLane="best" from="750204886#0" to="541763975"/>
    <trip id="veh136" type="veh_passenger" depart="1512.14" departLane="best" departSpeed="max" from="606078065#0" to="-4610374"/>
    <trip id="veh137" type="veh_passenger" depart="1523.26" departLane="best" departSpeed="max" from="-4611693#4" to="-15977422#0"/>
    <trip id="veh138" type="veh_passenger" depart="1534.37" departLane="best" from="1127595983" to="-23121445#3"/>
    <trip id="veh139" type="veh_passenger" depart="1545.49" departLane="best" from="202817674#3" to="66071373#1"/>
    <trip id="veh140" type="veh_passenger" depart="1556.61" departLane="best" from="461526152#1" to="-51167934#3"/>
    <trip id="veh141" type="veh_passenger" depart="1567.73" departLane="best" from="-111251382#3" to="-370359204#1"/>
    <trip id="veh142" type="veh_passenger" depart="1578.85" departLane="best" from="-1110526068" to="66071373#1"/>
    <trip id="veh143" type="veh_passenger" depart="1589.97" departLane="best" from="4611699#0" to="465376254#3"/>
    <trip id="veh144" type="veh_passenger" depart="1601.09" departLane="best" from="461526152#1" to="234463928#1"/>
    <trip id="veh145" type="veh_passenger" depart="1612.21" departLane="best" from="4610479#0" to="168940071#3"/>
    <trip id="veh147" type="veh_passenger" depart="1634.44" departLane="best" departSpeed="max" from="-437325047#2" to="4611693#1"/>
    <trip id="veh148" type="veh_passenger" depart="1645.56" departLane="best" departSpeed="max" from="1170522571" to="1101961674#3"/>
    <trip id="veh149" type="veh_passenger" depart="1656.68" departLane="best" from="-111251382#3" to="-437325047#1"/>
    <trip id="veh150" type="veh_passenger" depart="1667.80" departLane="best" from="-1101961737" to="465376254#3"/>
    <trip id="veh152" type="veh_passenger" depart="1690.04" departLane="best" departSpeed="max" from="83517332#0" to="171826984#2"/>
    <trip id="veh153" type="veh_passenger" depart="1701.15" departLane="best" departSpeed="max" from="68647306#0" to="-168942727#1"/>
    <trip id="veh155" type="veh_passenger" depart="1723.39" departLane="best" departSpeed="max" from="-188914559" to="-1126465703#0"/>
    <trip id="veh156" type="veh_passenger" depart="1734.51" departLane="best" departSpeed="max" from="380240681" to="1111982484"/>
    <trip id="veh157" type="veh_passenger" depart="1745.63" departLane="best" from="23121445#2" to="169195795#1"/>
    <trip id="veh158" type="veh_passenger" depart="1756.75" departLane="best" from="-465376254#3" to="339201177#4"/>
    <trip id="veh159" type="veh_passenger" depart="1767.87" departLane="best" departSpeed="max" from="-1100889498" to="606078071#0"/>
    <trip id="veh161" type="veh_passenger" depart="1790.10" departLane="best" departSpeed="max" from="43156728#0" to="-1171295120#0"/>
    <trip id="veh162" type="veh_passenger" depart="1801.22" departLane="best" from="1119837507#1" to="-1159156576#0"/>
    <trip id="veh163" type="veh_passenger" depart="1812.34" departLane="best" from="28251222#0" to="1116360926#1"/>
    <trip id="veh166" type="veh_passenger" depart="1845.70" departLane="best" from="136571494#1" to="114667396#2"/>
    <trip id="veh168" type="veh_passenger" depart="1867.93" departLane="best" departSpeed="max" from="-194962375#2" to="1151064403"/>
    <trip id="veh169" type="veh_passenger" depart="1879.05" departLane="best" departSpeed="max" from="68647306#0" to="305153173"/>
    <trip id="veh170" type="veh_passenger" depart="1890.17" departLane="best" departSpeed="max" from="606078065#0" to="23013165"/>
    <trip id="veh171" type="veh_passenger" depart="1901.29" departLane="best" departSpeed="max" from="-1100889498" to="1126237668#1"/>
    <trip id="veh172" type="veh_passenger" depart="1912.41" departLane="best" departSpeed="max" from="24914992" to="122820534#1"/>
    <trip id="veh173" type="veh_passenger" depart="1923.53" departLane="best" departSpeed="max" from="1159156576#0" to="-4610374"/>
    <trip id="veh174" type="veh_passenger" depart="1934.65" departLane="best" from="-137630045#1" to="171826984#2"/>
    <trip id="veh175" type="veh_passenger" depart="1945.76" departLane="best" departSpeed="max" from="24914992" to="1119837507#1"/>
    <trip id="veh176" type="veh_passenger" depart="1956.88" departLane="best" from="465376255#2" to="42103020#2"/>
    <trip id="veh177" type="veh_passenger" depart="1968.00" departLane="best" from="-339201177#2" to="-111833185#0"/>
    <trip id="veh178" type="veh_passenger" depart="1979.12" departLane="best" departSpeed="max" from="-4611693#4" to="153698394#2"/>
    <trip id="veh179" type="veh_passenger" depart="1990.24" departLane="best" from="534588621#0" to="-1171295120#1"/>
    <trip id="veh180" type="veh_passenger" depart="2001.36" departLane="best" from="-114667396#3" to="-1173516145#0"/>
    <trip id="veh181" type="veh_passenger" depart="2012.48" departLane="best" from="-31313667#1" to="327518240#1"/>
    <trip id="veh182" type="veh_passenger" depart="2023.60" departLane="best" from="437325047#0" to="427637455"/>
    <trip id="veh183" type="veh_passenger" depart="2034.71" departLane="best" from="-168942727#1" to="1151064405#1"/>
    <trip id="veh184" type="veh_passenger" depart="2045.83" departLane="best" departSpeed="max" from="-24243107#1" to="82654059#0"/>
    <trip id="veh185" type="veh_passenger" depart="2056.95" departLane="best" from="-168940071#4" to="-1133992735#0"/>
    <trip id="veh186" type="veh_passenger" depart="2068.07" departLane="best" departSpeed="max" from="-4611693#4" to="46140382"/>
    <trip id="veh187" type="veh_passenger" depart="2079.19" departLane="best" departSpeed="max" from="1170522571" to="4610476#0"/>
    <trip id="veh189" type="veh_passenger" depart="2101.43" departLane="best" departSpeed="max" from="606078065#0" to="22972454"/>
    <trip id="veh190" type="veh_passenger" depart="2112.54" departLane="best" from="35578559" to="168942727#1"/>
    <trip id="veh191" type="veh_passenger" depart="2123.66" departLane="best" from="490365295#0" to="190447768#1"/>
    <trip id="veh192" type="veh_passenger" depart="2134.78" departLane="best" departSpeed="max" from="606078065#0" to="42103020#0"/>
    <trip id="veh193" type="veh_passenger" depart="2145.90" departLane="best" from="-4611693#0" to="-534588621#1"/>
    <trip id="veh194" type="veh_passenger" depart="2157.02" departLane="best" departSpeed="max" from="-4611693#4" to="24243092#2"/>
    <trip id="veh195" type="veh_passenger" depart="2168.14" departLane="best" from="4610362#0" to="171826984#2"/>
    <trip id="veh196" type="veh_passenger" depart="2179.26" departLane="best" from="-24243107#0" to="-751595930"/>
    <trip id="veh197" type="veh_passenger" depart="2190.38" departLane="best" departSpeed="max" from="-120675240#4" to="1077923225#0"/>
    <trip id="veh198" type="veh_passenger" depart="2201.49" departLane="best" from="534588621#0" to="1111982484"/>
    <trip id="veh199" type="veh_passenger" depart="2212.61" departLane="best" from="190447766#1" to="-202817674#2"/>
    <trip id="veh200" type="veh_passenger" depart="2223.73" departLane="best" from="-4610472#2" to="-316746323#3"/>
    <trip id="veh201" type="veh_passenger" depart="2234.85" departLane="best" from="340498976#4" to="-1159156576#0"/>
    <trip id="veh202" type="veh_passenger" depart="2245.97" departLane="best" from="1144362247" to="188386313#1"/>
    <trip id="veh203" type="veh_passenger" depart="2257.09" departLane="best" from="-11483007#2" to="-4610374"/>
    <trip id="veh204" type="veh_passenger" depart="2268.21" departLane="best" departSpeed="max" from="1151064386#0" to="55741054"/>
    <trip id="veh205" type="veh_passenger" depart="2279.32" departLane="best" from="202157002#0" to="327518240#1"/>
    <trip id="veh206" type="veh_passenger" depart="2290.44" departLane="best" from="1123105979#1" to="-1101961735#0"/>
    <trip id="veh209" type="veh_passenger" depart="2323.80" departLane="best" departSpeed="max" from="1151064386#0" to="42103020#2"/>
    <trip id="veh210" type="veh_passenger" depart="2334.92" departLane="best" from="194069450#0" to="-202817674#2"/>
    <trip id="veh211" type="veh_passenger" depart="2346.04" departLane="best" departSpeed="max" from="-437325047#2" to="4610524#0"/>
    <trip id="veh212" type="veh_passenger" depart="2357.16" departLane="best" from="1159142856#1" to="-111833185#1"/>
    <trip id="veh213" type="veh_passenger" depart="2368.27" departLane="best" from="1112054538" to="30720544#0"/>
    <trip id="veh214" type="veh_passenger" depart="2379.39" departLane="best" from="1127592486#1" to="-316746323#3"/>
    <trip id="veh215" type="veh_passenger" depart="2390.51" departLane="best" from="1170522572#0" to="-195397541#5"/>
    <trip id="veh216" type="veh_passenger" depart="2401.63" departLane="best" from="24243092#0" to="-111833185#0"/>
    <trip id="veh217" type="veh_passenger" depart="2412.75" departLane="best" from="1126237668#1" to="194962375#2"/>
    <trip id="veh218" type="veh_passenger" depart="2423.87" departLane="best" from="-195397561#0" to="120675240#4"/>
    <trip id="veh219" type="veh_passenger" depart="2434.99" departLane="best" from="1151064396" to="1126234503#0"/>
    <trip id="veh220" type="veh_passenger" depart="2446.10" departLane="best" from="43231842#0" to="1113726463"/>
    <trip id="veh221" type="veh_passenger" depart="2457.22" departLane="best" departSpeed="max" from="4610351#0" to="882389494#1"/>
    <trip id="veh222" type="veh_passenger" depart="2468.34" departLane="best" from="-437325047#1" to="4611699#0"/>
    <trip id="veh223" type="veh_passenger" depart="2479.46" departLane="best" from="4611694#1" to="-1173516145#0"/>
    <trip id="veh225" type="veh_passenger" depart="2501.70" departLane="best" departSpeed="max" from="24914992" to="437325047#0"/>
    <trip id="veh226" type="veh_passenger" depart="2512.82" departLane="best" departSpeed="max" from="24914992" to="42103020#2"/>
    <trip id="veh228" type="veh_passenger" depart="2535.05" departLane="best" from="-1110526068" to="-23121445#6"/>
    <trip id="veh229" type="veh_passenger" depart="2546.17" departLane="best" departSpeed="max" from="-194962375#2" to="-28251222#0"/>
    <trip id="veh230" type="veh_passenger" depart="2557.29" departLane="best" from="339201217" to="42103020#2"/>
    <trip id="veh231" type="veh_passenger" depart="2568.41" departLane="best" from="-234463928#0" to="-202817674#5"/>
    <trip id="veh232" type="veh_passenger" depart="2579.53" departLane="best" departSpeed="max" from="43156728#0" to="-168940071#8"/>
    <trip id="veh233" type="veh_passenger" depart="2590.65" departLane="best" from="465376255#2" to="82654059#1"/>
    <trip id="veh234" type="veh_passenger" depart="2601.77" departLane="best" departSpeed="max" from="-188914559" to="-111833185#0"/>
    <trip id="veh237" type="veh_passenger" depart="2635.12" departLane="best" from="340498988#0" to="-1173516144#0"/>
    <trip id="veh238" type="veh_passenger" depart="2646.24" departLane="best" from="339201177#1" to="234463931#0"/>
    <trip id="veh239" type="veh_passenger" depart="2657.36" departLane="best" from="4610476#2" to="1119935543#0"/>
    <trip id="veh240" type="veh_passenger" depart="2668.48" departLane="best" from="-4610472#0" to="1121011269#1"/>
    <trip id="veh241" type="veh_passenger" depart="2679.60" departLane="best" from="15971189" to="1119935327#1"/>
    <trip id="veh242" type="veh_passenger" depart="2690.71" departLane="best" from="534588621#0" to="4611693#2"/>
    <trip id="veh243" type="veh_passenger" depart="2701.83" departLane="best" from="-168940071#8" to="82654059#0"/>
    <trip id="veh244" type="veh_passenger" depart="2712.95" departLane="best" departSpeed="max" from="24914992" to="4611698"/>
    <trip id="veh246" type="veh_passenger" depart="2735.19" departLane="best" from="-51167934#5" to="465376239"/>
    <trip id="veh247" type="veh_passenger" depart="2746.31" departLane="best" from="490365295#0" to="1198409426#2"/>
    <trip id="veh248" type="veh_passenger" depart="2757.43" departLane="best" departSpeed="max" from="606078065#0" to="-492340367#1"/>
    <trip id="veh249" type="veh_passenger" depart="2768.55" departLane="best" departSpeed="max" from="1170522571" to="22972219#0"/>
    <trip id="veh250" type="veh_passenger" depart="2779.66" departLane="best" from="-234463928#0" to="-111833185#1"/>
    <trip id="veh251" type="veh_passenger" depart="2790.78" departLane="best" from="-534588621#1" to="-43156728#1"/>
    <trip id="veh252" type="veh_passenger" depart="2801.90" departLane="best" from="-43231842#0" to="4610362#2"/>
    <trip id="veh253" type="veh_passenger" depart="2813.02" departLane="best" departSpeed="max" from="-111251382#2" to="-51167934#2"/>
    <trip id="veh254" type="veh_passenger" depart="2824.14" departLane="best" from="339201219" to="-751595930"/>
    <trip id="veh256" type="veh_passenger" depart="2846.38" departLane="best" from="-137630045#1" to="340498976#4"/>
    <trip id="veh257" type="veh_passenger" depart="2857.49" departLane="best" from="136571494#1" to="42103020#2"/>
    <trip id="veh258" type="veh_passenger" depart="2868.61" departLane="best" from="-339201177#1" to="24243107#1"/>
    <trip id="veh259" type="veh_passenger" depart="2879.73" departLane="best" from="137630045#1" to="4412868#2"/>
    <trip id="veh260" type="veh_passenger" depart="2890.85" departLane="best" from="202156994#0" to="153698390#1"/>
    <trip id="veh261" type="veh_passenger" depart="2901.97" departLane="best" from="169195795#1" to="1151064405#1"/>
    <trip id="veh262" type="veh_passenger" depart="2913.09" departLane="best" departSpeed="max" from="43156728#0" to="1116360926#1"/>
    <trip id="veh263" type="veh_passenger" depart="2924.21" departLane="best" from="339201219" to="-750204886#0"/>
    <trip id="veh264" type="veh_passenger" depart="2935.33" departLane="best" from="4611694#1" to="194962375#1"/>
    <trip id="veh265" type="veh_passenger" depart="2946.44" departLane="best" from="492340367#3" to="751595929#1"/>