<?xml version="1.0" encoding="UTF-8"?>

<!-- generated on 2024-05-15 00:14:03.106243 by osmWebWizard.py v1_18_0+0000-03ecfdea036
<configuration>
    <net-file value="C:\Users\hsarw\OneDrive\Desktop\FYP\basic_app\2024-05-15-00-13-53\osm.net.xml.gz"/>
    <output-trip-file value="C:\Users\hsarw\OneDrive\Desktop\FYP\basic_app\2024-05-15-00-13-53\osm.passenger.trips.xml"/>
    <route-file value="C:\Users\hsarw\OneDrive\Desktop\FYP\basic_app\2024-05-15-00-13-53\osm.passenger.rou.xml"/>
    <prefix value="veh"/>
    <trip-attributes value="departLane=&quot;best&quot;"/>
    <fringe-start-attributes value="departSpeed=&quot;max&quot;"/>
    <vehicle-class value="passenger"/>
    <lanes value="True"/>
    <fringe-factor value="5"/>
    <allow-fringe.min-length value="1000.0"/>
    <via-edge-types value="highway.motorway,highway.motorway_link,highway.trunk_link,highway.primary_link,highway.secondary_link,highway.tertiary_link"/>
    <min-distance value="300.0"/>
    <min-distance.fringe value="10.0"/>
    <remove-loops value="True"/>
    <validate value="True"/>
    <insertion-density value="12.0"/>
</configuration>
-->

<!-- generated on 2024-05-15 00:14:02 by Eclipse SUMO duarouter Version 1.18.0
<configuration xmlns:xsi="http://www.w3.org/2001/XMLSchema-instance" xsi:noNamespaceSchemaLocation="http://sumo.dlr.de/xsd/duarouterConfiguration.xsd">

    <input>
        <net-file value="C:\Users\hsarw\OneDrive\Desktop\FYP\basic_app\2024-05-15-00-13-53\osm.net.xml.gz"/>
        <route-files value="C:\Users\hsarw\OneDrive\Desktop\FYP\basic_app\2024-05-15-00-13-53\osm.passenger.trips.xml"/>
    </input>

    <output>
        <output-file value="C:\Users\hsarw\OneDrive\Desktop\FYP\basic_app\2024-05-15-00-13-53\osm.passenger.trips.xml.tmp"/>
        <alternatives-output value="NUL"/>
        <write-trips value="true"/>
    </output>

    <processing>
        <remove-loops value="true"/>
    </processing>

    <time>
        <begin value="0.0"/>
        <end value="3600.0"/>
    </time>

    <report>
        <no-warnings value="true"/>
        <ignore-errors value="true"/>
        <no-step-log value="true"/>
    </report>

</configuration>
-->

<routes xmlns:xsi="http://www.w3.org/2001/XMLSchema-instance" xsi:noNamespaceSchemaLocation="http://sumo.dlr.de/xsd/routes_file.xsd">
    <vType id="veh_passenger" vClass="passenger"/>
    <trip id="veh1" type="veh_passenger" depart="1.92" departLane="best" from="10148118#2" to="-723544504#0"/>
    <trip id="veh2" type="veh_passenger" depart="3.84" departLane="best" departSpeed="max" from="279034761" to="-23625206"/>
    <trip id="veh5" type="veh_passenger" depart="9.61" departLane="best" from="-23620888#1" to="23046822#2"/>
    <trip id="veh6" type="veh_passenger" depart="11.53" departLane="best" from="-685315134#0" to="-1173066539#0"/>
    <trip id="veh7" type="veh_passenger" depart="13.46" departLane="best" from="453668274" to="25497694#1-AddedOnRampEdge"/>
    <trip id="veh8" type="veh_passenger" depart="15.38" departLane="best" from="1164110050#2" to="-23620964#1"/>
    <trip id="veh9" type="veh_passenger" depart="17.30" departLane="best" from="8891351#0" to="1164110045#1"/>
    <trip id="veh10" type="veh_passenger" depart="19.22" departLane="best" from="-23620888#2" to="23327848#1"/>
    <trip id="veh13" type="veh_passenger" depart="24.99" departLane="best" departSpeed="max" from="23014000" to="8891351#3"/>
    <trip id="veh14" type="veh_passenger" depart="26.91" departLane="best" from="129197154#7" to="23312849#2"/>
    <trip id="veh16" type="veh_passenger" depart="30.76" departLane="best" from="723381366#2" to="-23325923#3"/>
    <trip id="veh17" type="veh_passenger" depart="32.68" departLane="best" from="25497694#1-AddedOnRampEdge" to="-23313171#0"/>
    <trip id="veh18" type="veh_passenger" depart="34.60" departLane="best" departSpeed="max" from="-728858392" to="1164110036"/>
    <trip id="veh20" type="veh_passenger" depart="38.45" departLane="best" departSpeed="max" from="-23620911#2" to="1164110035"/>
    <trip id="veh23" type="veh_passenger" depart="44.21" departLane="best" departSpeed="max" from="10148118#0" to="8891351#1"/>
    <trip id="veh24" type="veh_passenger" depart="46.13" departLane="best" from="-23553073" to="23327858#3"/>
    <trip id="veh26" type="veh_passenger" depart="49.98" departLane="best" departSpeed="max" from="-29088629#2" to="1164110050#4"/>
    <trip id="veh29" type="veh_passenger" depart="55.75" departLane="best" departSpeed="max" from="723381366#0" to="624059110"/>
    <trip id="veh30" type="veh_passenger" depart="57.67" departLane="best" departSpeed="max" from="-728858392" to="-159215900#1"/>
    <trip id="veh32" type="veh_passenger" depart="61.51" departLane="best" from="-723544503#0" to="8891351#1-AddedOffRampEdge"/>
    <trip id="veh33" type="veh_passenger" depart="63.44" departLane="best" from="723381366#4" to="1164110044"/>
    <trip id="veh34" type="veh_passenger" depart="65.36" departLane="best" from="-817856813" to="129197154#7"/>
    <trip id="veh36" type="veh_passenger" depart="69.20" departLane="best" departSpeed="max" from="10148118#0" to="771954633#0"/>
    <trip id="veh38" type="veh_passenger" depart="73.05" departLane="best" from="15052274" to="685315135#1"/>
    <trip id="veh40" type="veh_passenger" depart="76.89" departLane="best" from="-23620888#1" to="-23313171#0"/>
    <trip id="veh43" type="veh_passenger" depart="82.66" departLane="best" from="-23327804#4" to="1164110050#4"/>
    <trip id="veh45" type="veh_passenger" depart="86.50" departLane="best" from="8891351#1-AddedOffRampEdge" to="723544507#0"/>
    <trip id="veh47" type="veh_passenger" depart="90.35" departLane="best" from="23620999" to="23046822#2"/>
    <trip id="veh48" type="veh_passenger" depart="92.27" departLane="best" departSpeed="max" from="10148118#0" to="23620895#1"/>
    <trip id="veh49" type="veh_passenger" depart="94.19" departLane="best" from="23620944#2" to="159072779#2"/>
    <trip id="veh50" type="veh_passenger" depart="96.11" departLane="best" departSpeed="max" from="19910433#0" to="8891351#2"/>
    <trip id="veh51" type="veh_passenger" depart="98.04" departLane="best" from="723381366#4" to="10148118#2"/>
    <trip id="veh53" type="veh_passenger" depart="101.88" departLane="best" from="-23625206" to="685315135#2"/>
    <trip id="veh54" type="veh_passenger" depart="103.80" departLane="best" from="1164110036" to="23620888#2"/>
    <trip id="veh55" type="veh_passenger" depart="105.73" departLane="best" from="23327843#1" to="-23620962#1"/>
    <trip id="veh57" type="veh_passenger" depart="109.57" departLane="best" from="350542308#4" to="23046822#2"/>
    <trip id="veh58" type="veh_passenger" depart="111.49" departLane="best" from="-1020641929" to="1164110045#0"/>
    <trip id="veh60" type="veh_passenger" depart="115.34" departLane="best" from="1164110036-AddedOnRampEdge" to="23325769#0"/>
    <trip id="veh61" type="veh_passenger" depart="117.26" departLane="best" from="23327843#1" to="453692184"/>
    <trip id="veh63" type="veh_passenger" depart="121.10" departLane="best" departSpeed="max" from="19910433#0" to="23046822#2"/>
    <trip id="veh64" type="veh_passenger" depart="123.03" departLane="best" departSpeed="max" from="10148118#0" to="728858394"/>
    <trip id="veh67" type="veh_passenger" depart="128.79" departLane="best" from="685315135#0" to="1164110044"/>
    <trip id="veh69" type="veh_passenger" depart="132.64" departLane="best" departSpeed="max" from="159215903#0" to="23046822#1"/>
    <trip id="veh70" type="veh_passenger" depart="134.56" departLane="best" from="1164110050#0" to="23327804#2"/>
    <trip id="veh71" type="veh_passenger" depart="136.48" departLane="best" from="-23327843#2" to="23510378#0"/>
    <trip id="veh73" type="veh_passenger" depart="140.33" departLane="best" from="723381366#2" to="-23325923#6"/>
    <trip id="veh74" type="veh_passenger" depart="142.25" departLane="best" from="744532583" to="23620962#0"/>
    <trip id="veh75" type="veh_passenger" depart="144.17" departLane="best" from="-723544504#1" to="-23620895#0"/>
    <trip id="veh76" type="veh_passenger" depart="146.09" departLane="best" from="809715981#1" to="23325769#1"/>
    <trip id="veh77" type="veh_passenger" depart="148.02" departLane="best" departSpeed="max" from="19910433#0" to="685315133"/>
    <trip id="veh79" type="veh_passenger" depart="151.86" departLane="best" from="-23620911#1" to="159072779#1-AddedOnRampEdge"/>
    <trip id="veh83" type="veh_passenger" depart="159.55" departLane="best" departSpeed="max" from="154535056#0" to="1164110045#1"/>
    <trip id="veh84" type="veh_passenger" depart="161.47" departLane="best" from="723381366#2" to="-771954634"/>
    <trip id="veh85" type="veh_passenger" depart="163.39" departLane="best" from="-624059110" to="159215903#1"/>
    <trip id="veh86" type="veh_passenger" depart="165.32" departLane="best" departSpeed="max" from="159215900#0" to="1164110035"/>
    <trip id="veh87" type="veh_passenger" depart="167.24" departLane="best" from="-771954633#0" to="8891351#0"/>
    <trip id="veh88" type="veh_passenger" depart="169.16" departLane="best" departSpeed="max" from="159215903#0" to="723544507#1"/>
    <trip id="veh89" type="veh_passenger" depart="171.08" departLane="best" from="23046822#1" to="-23313171#1"/>
    <trip id="veh93" type="veh_passenger" depart="178.77" departLane="best" departSpeed="max" from="154535056#0" to="-23325769#1"/>
    <trip id="veh94" type="veh_passenger" depart="180.69" departLane="best" from="129197154#7" to="8891351#3"/>
    <trip id="veh95" type="veh_passenger" depart="182.62" departLane="best" departSpeed="max" from="19910433#0" to="15052274"/>
    <trip id="veh96" type="veh_passenger" depart="184.54" departLane="best" from="8891351#0" to="8891351#3-AddedOnRampEdge"/>
    <trip id="veh99" type="veh_passenger" depart="190.31" departLane="best" from="8891351#1-AddedOffRampEdge" to="-23325923#4"/>
    <trip id="veh101" type="veh_passenger" depart="194.15" departLane="best" from="22814495#2" to="723544504#0"/>
    <trip id="veh104" type="veh_passenger" depart="199.92" departLane="best" from="23327804#3" to="-23620999"/>
    <trip id="veh106" type="veh_passenger" depart="203.76" departLane="best" from="723544504#0" to="-771954633#0"/>
    <trip id="veh108" type="veh_passenger" depart="207.61" departLane="best" from="159072779#4" to="-23325923#7"/>
    <trip id="veh109" type="veh_passenger" depart="209.53" departLane="best" departSpeed="max" from="23014000" to="8891351#1"/>
    <trip id="veh111" type="veh_passenger" depart="213.37" departLane="best" from="744532583" to="129197154#7"/>
    <trip id="veh112" type="veh_passenger" depart="215.30" departLane="best" from="23620951#1" to="1164110044"/>
    <trip id="veh116" type="veh_passenger" depart="222.98" departLane="best" departSpeed="max" from="10148118#0" to="8891351#1"/>
    <trip id="veh118" type="veh_passenger" depart="226.83" departLane="best" from="129197154#2" to="23620999"/>
    <trip id="veh119" type="veh_passenger" depart="228.75" departLane="best" departSpeed="max" from="723381366#0" to="25497694#1-AddedOnRampEdge"/>
    <trip id="veh120" type="veh_passenger" depart="230.67" departLane="best" from="-23327843#2" to="8891351#3"/>
    <trip id="veh121" type="veh_passenger" depart="232.60" departLane="best" from="23620895#0" to="-1173066539#0"/>
    <trip id="veh122" type="veh_passenger" depart="234.52" departLane="best" from="709496387" to="1164110044"/>
    <trip id="veh123" type="veh_passenger" depart="236.44" departLane="best" from="23620944#0" to="8891351#1-AddedOffRampEdge"/>
    <trip id="veh124" type="veh_passenger" depart="238.36" departLane="best" departSpeed="max" from="-23636083#1" to="-23553065"/>
    <trip id="veh125" type="veh_passenger" depart="240.29" departLane="best" from="-23620937#1" to="23312849#2"/>
    <trip id="veh127" type="veh_passenger" depart="244.13" departLane="best" departSpeed="max" from="264312282#0" to="-547329807#0"/>
    <trip id="veh130" type="veh_passenger" depart="249.90" departLane="best" departSpeed="max" from="723381366#0" to="23327843#1"/>
    <trip id="veh133" type="veh_passenger" depart="255.66" departLane="best" departSpeed="max" from="279034761" to="23312849#1"/>
    <trip id="veh134" type="veh_passenger" depart="257.59" departLane="best" departSpeed="max" from="159215900#0" to="-1173066539#0"/>
    <trip id="veh136" type="veh_passenger" depart="261.43" departLane="best" from="-723544507#0" to="23046822#2"/>
    <trip id="veh137" type="veh_passenger" depart="263.35" departLane="best" departSpeed="max" from="723381366#0" to="-23325923#7"/>
    <trip id="veh143" type="veh_passenger" depart="274.89" departLane="best" from="350542308#5" to="745207718"/>
    <trip id="veh146" type="veh_passenger" depart="280.65" departLane="best" from="723381366#3" to="8891351#3"/>
    <trip id="veh149" type="veh_passenger" depart="286.42" departLane="best" from="1164110046" to="8891351#1"/>
    <trip id="veh151" type="veh_passenger" depart="290.26" departLane="best" from="-23325923#0" to="10148118#4"/>
    <trip id="veh152" type="veh_passenger" depart="292.19" departLane="best" from="676892371" to="-23510378#1"/>
    <trip id="veh153" type="veh_passenger" depart="294.11" departLane="best" from="723381366#4" to="723544506#1"/>
    <trip id="veh155" type="veh_passenger" depart="297.95" departLane="best" departSpeed="max" from="19910433#0" to="1164110044"/>
    <trip id="veh159" type="veh_passenger" depart="305.64" departLane="best" from="8891351#1-AddedOffRampEdge" to="1164110035"/>
    <trip id="veh164" type="veh_passenger" depart="315.25" departLane="best" from="8891351#1" to="10148118#2"/>
    <trip id="veh165" type="veh_passenger" depart="317.18" departLane="best" from="23620944#0" to="159072779#2"/>
    <trip id="veh168" type="veh_passenger" depart="322.94" departLane="best" departSpeed="max" from="129197155" to="23325923#2"/>
    <trip id="veh169" type="veh_passenger" depart="324.87" departLane="best" from="-817856813" to="25497696"/>
    <trip id="veh170" type="veh_passenger" depart="326.79" departLane="best" from="1158044078" to="8891351#0"/>
    <trip id="veh172" type="veh_passenger" depart="330.63" departLane="best" departSpeed="max" from="279034761" to="23620962#1"/>
    <trip id="veh173" type="veh_passenger" depart="332.55" departLane="best" departSpeed="max" from="1232725833#0" to="-23325923#5"/>
    <trip id="veh174" type="veh_passenger" depart="334.48" departLane="best" from="23620944#1" to="1164110045#1"/>
    <trip id="veh176" type="veh_passenger" depart="338.32" departLane="best" from="1164110036-AddedOnRampEdge" to="129197160#1"/>
    <trip id="veh177" type="veh_passenger" depart="340.24" departLane="best" departSpeed="max" from="154535056#0" to="1164110036-AddedOnRampEdge"/>
    <trip id="veh180" type="veh_passenger" depart="346.01" departLane="best" from="1164110036" to="23046822#2"/>
    <trip id="veh181" type="veh_passenger" depart="347.93" departLane="best" from="-1020641929" to="1164110036"/>
    <trip id="veh182" type="veh_passenger" depart="349.86" departLane="best" from="159215900#2" to="-23325923#5"/>
    <trip id="veh187" type="veh_passenger" depart="359.47" departLane="best" from="-23510378#1" to="23046822#1"/>
    <trip id="veh189" type="veh_passenger" depart="363.31" departLane="best" from="709496387" to="350542308#4"/>
    <trip id="veh190" type="veh_passenger" depart="365.23" departLane="best" from="685315134#0" to="-159215900#0"/>
    <trip id="veh192" type="veh_passenger" depart="369.08" departLane="best" departSpeed="max" from="723381366#0" to="-23325923#7"/>
    <trip id="veh194" type="veh_passenger" depart="372.92" departLane="best" departSpeed="max" from="-685315133" to="25497694#1"/>
    <trip id="veh195" type="veh_passenger" depart="374.84" departLane="best" from="19910433#1" to="-745207719"/>
    <trip id="veh196" type="veh_passenger" depart="376.77" departLane="best" from="-23620911#0" to="-1173066539#0"/>
    <trip id="veh198" type="veh_passenger" depart="380.61" departLane="best" from="23620937#1" to="159072779#0"/>
    <trip id="veh200" type="veh_passenger" depart="384.46" departLane="best" departSpeed="max" from="23014000" to="-23313171#1"/>
    <trip id="veh201" type="veh_passenger" depart="386.38" departLane="best" from="-745207719" to="723381366#4-AddedOnRampEdge"/>
    <trip id="veh202" type="veh_passenger" depart="388.30" departLane="best" departSpeed="max" from="19910433#0" to="685315136"/>
    <trip id="veh203" type="veh_passenger" depart="390.22" departLane="best" from="23620949#0" to="8891351#3"/>
    <trip id="veh204" type="veh_passenger" depart="392.15" departLane="best" from="23327804#3" to="8891351#2"/>
    <trip id="veh207" type="veh_passenger" depart="397.91" departLane="best" departSpeed="max" from="723381366#0" to="23046822#2"/>
    <trip id="veh209" type="veh_passenger" depart="401.76" departLane="best" departSpeed="max" from="19910433#0" to="-8745064#1"/>
    <trip id="veh210" type="veh_passenger" depart="403.68" departLane="best" departSpeed="max" from="-745207718" to="23620888#1"/>
    <trip id="veh214" type="veh_passenger" depart="411.37" departLane="best" from="10148118#1" to="1164110044"/>
    <trip id="veh215" type="veh_passenger" depart="413.29" departLane="best" departSpeed="max" from="23014000" to="-23620937#1"/>
    <trip id="veh216" type="veh_passenger" depart="415.21" departLane="best" departSpeed="max" from="-728858394" to="25497694#1"/>
    <trip id="veh217" type="veh_passenger" depart="417.14" departLane="best" from="25497694#1-AddedOnRampEdge" to="-23325923#1"/>
    <trip id="veh218" type="veh_passenger" depart="419.06" departLane="best" from="154535056#1" to="23046822#2"/>
    <trip id="veh221" type="veh_passenger" depart="424.82" departLane="best" from="23325923#4" to="25497694#1"/>
    <trip id="veh223" type="veh_passenger" depart="428.67" departLane="best" from="129197154#7" to="-1173066539#0"/>
    <trip id="veh224" type="veh_passenger" depart="430.59" departLane="best" from="1173066539#1" to="350542308#6"/>
    <trip id="veh225" type="veh_passenger" depart="432.51" departLane="best" from="723381366#1" to="8891351#2"/>
    <trip id="veh230" type="veh_passenger" depart="442.12" departLane="best" departSpeed="max" from="19910433#0" to="23620888#0"/>
    <trip id="veh232" type="veh_passenger" depart="445.97" departLane="best" from="129197157" to="23324343"/>
    <trip id="veh233" type="veh_passenger" depart="447.89" departLane="best" from="-23313171#1" to="23620911#0"/>
    <trip id="veh235" type="veh_passenger" depart="451.74" departLane="best" from="-23325923#3" to="1164110050#4"/>
    <trip id="veh236" type="veh_passenger" depart="453.66" departLane="best" from="-723544503#0" to="1164110045#0"/>
    <trip id="veh237" type="veh_passenger" depart="455.58" departLane="best" from="307541278" to="1164110050#4"/>
    <trip id="veh239" type="veh_passenger" depart="459.43" departLane="best" from="-771954633#1" to="23327804#7"/>
    <trip id="veh242" type="veh_passenger" depart="465.19" departLane="best" from="-23620888#1" to="685315133"/>
    <trip id="veh243" type="veh_passenger" depart="467.11" departLane="best" from="-23620888#2" to="350542308#6"/>
    <trip id="veh246" type="veh_passenger" depart="472.88" departLane="best" departSpeed="max" from="23313171#0" to="685315135#0"/>
    <trip id="veh248" type="veh_passenger" depart="476.73" departLane="best" departSpeed="max" from="-29088629#2" to="23327858#1"/>
    <trip id="veh249" type="veh_passenger" depart="478.65" departLane="best" departSpeed="max" from="279034761" to="-23553065"/>
    <trip id="veh250" type="veh_passenger" depart="480.57" departLane="best" from="709496387" to="8891351#3"/>
    <trip id="veh251" type="veh_passenger" depart="482.49" departLane="best" from="23620944#0" to="-159215900#0"/>
    <trip id="veh253" type="veh_passenger" depart="486.34" departLane="best" from="8891351#0" to="129197154#7"/>
    <trip id="veh254" type="veh_passenger" depart="488.26" departLane="best" from="25497696" to="23327804#2"/>
    <trip id="veh256" type="veh_passenger" depart="492.10" departLane="best" departSpeed="max" from="723381366#0" to="-23327848#1"/>
    <trip id="veh257" type="veh_passenger" depart="494.03" departLane="best" from="-23620962#0" to="8891351#3"/>
    <trip id="veh258" type="veh_passenger" depart="495.95" departLane="best" from="350542308#7" to="1164110045#1"/>
    <trip id="veh259" type="veh_passenger" depart="497.87" departLane="best" from="159215900#1" to="1164110046"/>
    <trip id="veh260" type="veh_passenger" depart="499.79" departLane="best" from="22814495#3" to="1164110045#1"/>
    <trip id="veh261" type="veh_passenger" depart="501.72" departLane="best" departSpeed="max" from="723381366#0" to="723381366#2"/>
    <trip id="veh262" type="veh_passenger" depart="503.64" departLane="best" from="23620937#0" to="8891351#3"/>
    <trip id="veh264" type="veh_passenger" depart="507.48" departLane="best" from="25497694#1-AddedOnRampEdge" to="159072779#4"/>
    <trip id="veh267" type="veh_passenger" depart="513.25" departLane="best" departSpeed="max" from="23014000" to="22814495#2"/>
    <trip id="veh269" type="veh_passenger" depart="517.09" departLane="best" departSpeed="max" from="10148118#0" to="723544503#1"/>
    <trip id="veh270" type="veh_passenger" depart="519.02" departLane="best" departSpeed="max" from="723381366#0" to="-23327843#0"/>
    <trip id="veh271" type="veh_passenger" depart="520.94" departLane="best" from="723381366#4-AddedOnRampEdge" to="-745207719"/>
    <trip id="veh273" type="veh_passenger" depart="524.78" departLane="best" from="129197154#7" to="-159215900#0"/>
    <trip id="veh275" type="veh_passenger" depart="528.63" departLane="best" from="-723544504#0" to="685315136"/>
    <trip id="veh277" type="veh_passenger" depart="532.47" departLane="best" from="25497694#1" to="-1158044078"/>
    <trip id="veh278" type="veh_passenger" depart="534.39" departLane="best" departSpeed="max" from="-129197829" to="8891351#2"/>
    <trip id="veh280" type="veh_passenger" depart="538.24" departLane="best" from="19910433#0-AddedOffRampEdge" to="386637921"/>
    <trip id="veh282" type="veh_passenger" depart="542.08" departLane="best" from="19910433#0-AddedOffRampEdge" to="-685315135#1"/>
    <trip id="veh283" type="veh_passenger" depart="544.01" departLane="best" from="-23620888#2" to="723544503#0"/>
    <trip id="veh286" type="veh_passenger" depart="549.77" departLane="best" departSpeed="max" from="23014000" to="159072779#0"/>
    <trip id="veh287" type="veh_passenger" depart="551.69" departLane="best" departSpeed="max" from="279034761" to="1164110045#1"/>
    <trip id="veh288" type="veh_passenger" depart="553.62" departLane="best" from="25497694#1" to="22814495#2"/>
    <trip id="veh294" type="veh_passenger" depart="565.15" departLane="best" from="8891351#1-AddedOffRampEdge" to="23046822#2"/>
    <trip id="veh296" type="veh_passenger" depart="569.00" departLane="best" departSpeed="max" from="-685315133" to="-723544505#0"/>
    <trip id="veh298" type="veh_passenger" depart="572.84" departLane="best" departSpeed="max" from="23014000" to="22814495#0"/>
    <trip id="veh299" type="veh_passenger" depart="574.76" departLane="best" from="8891351#1-AddedOffRampEdge" to="23312849#3"/>
    <trip id="veh301" type="veh_passenger" depart="578.61" departLane="best" from="723381366#3" to="22814495#7"/>
    <trip id="veh302" type="veh_passenger" depart="580.53" departLane="best" from="723381366#4" to="-23325923#1"/>
    <trip id="veh303" type="veh_passenger" depart="582.45" departLane="best" departSpeed="max" from="19910433#0" to="159215900#4"/>
    <trip id="veh308" type="veh_passenger" depart="592.06" departLane="best" departSpeed="max" from="23313171#0" to="1164110044"/>
    <trip id="veh310" type="veh_passenger" depart="595.91" departLane="best" from="307558360#1" to="23327858#1"/>
    <trip id="veh312" type="veh_passenger" depart="599.75" departLane="best" departSpeed="max" from="23014000" to="159215903#1"/>
    <trip id="veh313" type="veh_passenger" depart="601.67" departLane="best" departSpeed="max" from="159215903#0" to="723544507#0"/>
    <trip id="veh315" type="veh_passenger" depart="605.52" departLane="best" from="23327858#1" to="23327858#3"/>
    <trip id="veh316" type="veh_passenger" depart="607.44" departLane="best" departSpeed="max" from="279034761" to="8891351#2"/>
    <trip id="veh319" type="veh_passenger" depart="613.21" departLane="best" from="-1158044078" to="159215903#1"/>
    <trip id="veh320" type="veh_passenger" depart="615.13" departLane="best" from="23327804#2" to="1164110036-AddedOnRampEdge"/>
    <trip id="veh321" type="veh_passenger" depart="617.05" departLane="best" departSpeed="max" from="-728858394" to="25497696"/>
    <trip id="veh322" type="veh_passenger" depart="618.97" departLane="best" from="25497694#1" to="159215903#1"/>
    <trip id="veh325" type="veh_passenger" depart="624.74" departLane="best" from="23620937#0" to="8891351#1"/>
    <trip id="veh326" type="veh_passenger" depart="626.66" departLane="best" departSpeed="max" from="159215900#0" to="23046822#2"/>
    <trip id="veh328" type="veh_passenger" depart="630.51" departLane="best" departSpeed="max" from="723381366#0" to="-23325923#6"/>
    <trip id="veh329" type="veh_passenger" depart="632.43" departLane="best" departSpeed="max" from="-29088629#2" to="1164110044"/>
    <trip id="veh330" type="veh_passenger" depart="634.35" departLane="best" departSpeed="max" from="279034761" to="23324343"/>
    <trip id="veh333" type="veh_passenger" depart="640.12" departLane="best" from="843237647" to="22814495#7"/>
    <trip id="veh334" type="veh_passenger" depart="642.04" departLane="best" from="19910433#1" to="23327804#6"/>
    <trip id="veh335" type="veh_passenger" depart="643.96" departLane="best" departSpeed="max" from="-23324343" to="159072779#1-AddedOnRampEdge"/>
    <trip id="veh337" type="veh_passenger" depart="647.81" departLane="best" from="-23620888#1" to="8891351#3"/>
    <trip id="veh338" type="veh_passenger" depart="649.73" departLane="best" departSpeed="max" from="723381366#0" to="-23325923#2"/>
    <trip id="veh339" type="veh_passenger" depart="651.65" departLane="best" from="8745064#1" to="8891351#3-AddedOnRampEdge"/>
    <trip id="veh340" type="veh_passenger" depart="653.58" departLane="best" from="-23620951#1" to="10148118#5"/>
    <trip id="veh341" type="veh_passenger" depart="655.50" departLane="best" departSpeed="max" from="-23324343" to="350542308#8"/>
    <trip id="veh342" type="veh_passenger" depart="657.42" departLane="best" departSpeed="max" from="19910433#0" to="23620911#2"/>
    <trip id="veh345" type="veh_passenger" depart="663.19" departLane="best" from="19910433#0-AddedOffRampEdge" to="-23327843#0"/>
    <trip id="veh346" type="veh_passenger" depart="665.11" departLane="best" departSpeed="max" from="1173066539#0" to="1164110045#1"/>
    <trip id="veh347" type="veh_passenger" depart="667.03" departLane="best" from="1158044078" to="8891351#1-AddedOffRampEdge"/>
    <trip id="veh348" type="veh_passenger" depart="668.95" departLane="best" from="685315135#1" to="23046822#2"/>
    <trip id="veh349" type="veh_passenger" depart="670.88" departLane="best" departSpeed="max" from="19910433#0" to="1164110044"/>
    <trip id="veh351" type="veh_passenger" depart="674.72" departLane="best" departSpeed="max" from="154535056#0" to="23046822#1"/>
    <trip id="veh353" type="veh_passenger" depart="678.57" departLane="best" departSpeed="max" from="23014000" to="129197160#1"/>
    <trip id="veh355" type="veh_passenger" depart="682.41" departLane="best" departSpeed="max" from="279034761" to="23328041#1"/>
    <trip id="veh357" type="veh_passenger" depart="686.25" departLane="best" from="23046822#1" to="8891351#0"/>
    <trip id="veh358" type="veh_passenger" depart="688.18" departLane="best" departSpeed="max" from="159215903#0" to="25497694#1-AddedOnRampEdge"/>
    <trip id="veh359" type="veh_passenger" depart="690.10" departLane="best" from="-23620962#1" to="8891351#3"/>
    <trip id="veh364" type="veh_passenger" depart="699.71" departLane="best" departSpeed="max" from="723381366#0" to="22814495#7"/>
    <trip id="veh365" type="veh_passenger" depart="701.63" departLane="best" from="10148118#1" to="723381366#4"/>
    <trip id="veh369" type="veh_passenger" depart="709.32" departLane="best" from="723381366#4-AddedOnRampEdge" to="728858392"/>
    <trip id="veh370" type="veh_passenger" depart="711.24" departLane="best" from="10148118#2" to="685315134#1"/>
    <trip id="veh371" type="veh_passenger" depart="713.17" departLane="best" from="159072779#1-AddedOnRampEdge" to="8891351#1"/>
    <trip id="veh373" type="veh_passenger" depart="717.01" departLane="best" from="10148118#5" to="1164110036-AddedOnRampEdge"/>
    <trip id="veh374" type="veh_passenger" depart="718.93" departLane="best" from="23325923#6" to="8891351#3-AddedOnRampEdge"/>
    <trip id="veh375" type="veh_passenger" depart="720.86" departLane="best" from="19910433#0-AddedOffRampEdge" to="-23620951#1"/>
    <trip id="veh376" type="veh_passenger" depart="722.78" departLane="best" departSpeed="max" from="23014000" to="1164110045#1"/>
    <trip id="veh377" type="veh_passenger" depart="724.70" departLane="best" from="23046822#2" to="23046822#2"/>
    <trip id="veh378" type="veh_passenger" depart="726.62" departLane="best" departSpeed="max" from="19910433#0" to="1164110045#0"/>
    <trip id="veh380" type="veh_passenger" depart="730.47" departLane="best" from="23313171#3" to="-723544505#1"/>
    <trip id="veh381" type="veh_passenger" depart="732.39" departLane="best" departSpeed="max" from="350542308#0" to="-23313171#0"/>
    <trip id="veh382" type="veh_passenger" depart="734.31" departLane="best" departSpeed="max" from="279034761" to="25497696"/>
    <trip id="veh383" type="veh_passenger" depart="736.23" departLane="best" from="685315134#1" to="129197154#2"/>