<?xml version="1.0" encoding="UTF-8"?>

<!-- generated on 2024-06-02 17:15:29.251019 by osmWebWizard.py v1_18_0+0000-03ecfdea036
<configuration>
    <net-file value="C:\Users\hsarw\OneDrive\Desktop\Others\FYP\basic_app\2024-06-02-17-15-26\osm.net.xml.gz"/>
    <output-trip-file value="C:\Users\hsarw\OneDrive\Desktop\Others\FYP\basic_app\2024-06-02-17-15-26\osm.passenger.trips.xml"/>
    <route-file value="C:\Users\hsarw\OneDrive\Desktop\Others\FYP\basic_app\2024-06-02-17-15-26\osm.passenger.rou.xml"/>
    <prefix value="veh"/>
    <trip-attributes value="departLane=&quot;best&quot;"/>
    <fringe-start-attributes value="departSpeed=&quot;max&quot;"/>
    <vehicle-class value="passenger"/>
    <lanes value="True"/>
    <fringe-factor value="5"/>
    <allow-fringe.min-length value="1000.0"/>
    <via-edge-types value="highway.motorway,highway.motorway_link,highway.trunk_link,highway.primary_link,highway.secondary_link,highway.tertiary_link"/>
    <min-distance value="300.0"/>
    <min-distance.fringe value="10.0"/>
    <remove-loops value="True"/>
    <validate value="True"/>
    <insertion-density value="12.0"/>
</configuration>
-->

<!-- generated on 2024-06-02 17:15:29 by Eclipse SUMO duarouter Version 1.18.0
<configuration xmlns:xsi="http://www.w3.org/2001/XMLSchema-instance" xsi:noNamespaceSchemaLocation="http://sumo.dlr.de/xsd/duarouterConfiguration.xsd">

    <input>
        <net-file value="C:\Users\hsarw\OneDrive\Desktop\Others\FYP\basic_app\2024-06-02-17-15-26\osm.net.xml.gz"/>
        <route-files value="C:\Users\hsarw\OneDrive\Desktop\Others\FYP\basic_app\2024-06-02-17-15-26\osm.passenger.trips.xml"/>
    </input>

    <output>
        <output-file value="C:\Users\hsarw\OneDrive\Desktop\Others\FYP\basic_app\2024-06-02-17-15-26\osm.passenger.trips.xml.tmp"/>
        <alternatives-output value="NUL"/>
        <write-trips value="true"/>
    </output>

    <processing>
        <remove-loops value="true"/>
    </processing>

    <time>
        <begin value="0.0"/>
        <end value="3600.0"/>
    </time>

    <report>
        <no-warnings value="true"/>
        <ignore-errors value="true"/>
        <no-step-log value="true"/>
    </report>

</configuration>
-->

<routes xmlns:xsi="http://www.w3.org/2001/XMLSchema-instance" xsi:noNamespaceSchemaLocation="http://sumo.dlr.de/xsd/routes_file.xsd">
    <vType id="veh_passenger" vClass="passenger"/>
    <trip id="veh0" type="veh_passenger" depart="0.00" departLane="best" from="1220616652#1" to="-1154078870#0"/>
    <trip id="veh2" type="veh_passenger" depart="13.40" departLane="best" from="563565121" to="-1220616651#0"/>
    <trip id="veh3" type="veh_passenger" depart="20.10" departLane="best" from="563565127#2" to="1154078871"/>
    <trip id="veh4" type="veh_passenger" depart="26.80" departLane="best" departSpeed="max" from="-1154078872#2" to="-1220616732#0"/>
    <trip id="veh5" type="veh_passenger" depart="33.50" departLane="best" from="1220616680#1" to="1156802706#1"/>
    <trip id="veh6" type="veh_passenger" depart="40.20" departLane="best" departSpeed="max" from="-1220636146" to="1220616709#1"/>
    <trip id="veh7" type="veh_passenger" depart="46.90" departLane="best" from="-38920464#3" to="1154068135"/>
    <trip id="veh8" type="veh_passenger" depart="53.60" departLane="best" from="-563565116#2" to="-1220616728"/>
    <trip id="veh9" type="veh_passenger" depart="60.30" departLane="best" from="563565131" to="563565117"/>
    <trip id="veh11" type="veh_passenger" depart="73.70" departLane="best" from="-563565123#0" to="1220616651#3"/>
    <trip id="veh12" type="veh_passenger" depart="80.40" departLane="best" from="-563565119#0" to="1220616677"/>
    <trip id="veh13" type="veh_passenger" depart="87.10" departLane="best" departSpeed="max" from="1220616728" to="-1154078875#0"/>
    <trip id="veh14" type="veh_passenger" depart="93.80" departLane="best" departSpeed="max" from="-1220636146" to="450504042#3"/>
    <trip id="veh16" type="veh_passenger" depart="107.20" departLane="best" departSpeed="max" from="-1220616677" to="38920464#7"/>
    <trip id="veh17" type="veh_passenger" depart="113.90" departLane="best" from="1220616651#3" to="563565124#1"/>
    <trip id="veh18" type="veh_passenger" depart="120.60" departLane="best" from="-563565119#1" to="-154903204#1"/>
    <trip id="veh19" type="veh_passenger" depart="127.30" departLane="best" from="-23012592#1" to="563565132#1"/>
    <trip id="veh21" type="veh_passenger" depart="140.70" departLane="best" departSpeed="max" from="-1220616725#2" to="-563565126#0"/>
    <trip id="veh23" type="veh_passenger" depart="154.10" departLane="best" departSpeed="max" from="1154078870#0" to="1220616732#1"/>
    <trip id="veh24" type="veh_passenger" depart="160.81" departLane="best" from="450504043#2" to="38920464#6"/>
    <trip id="veh25" type="veh_passenger" depart="167.51" departLane="best" departSpeed="max" from="-1220636146" to="1154078872#0"/>
    <trip id="veh26" type="veh_passenger" depart="174.21" departLane="best" from="-450504042#3" to="38920464#3"/>
    <trip id="veh27" type="veh_passenger" depart="180.91" departLane="best" departSpeed="max" from="-1220616732#1" to="563565133#1"/>
    <trip id="veh28" type="veh_passenger" depart="187.61" departLane="best" departSpeed="max" from="1220616680#0" to="-563565127#2"/>
    <trip id="veh29" type="veh_passenger" depart="194.31" departLane="best" departSpeed="max" from="563565126#0" to="-1154068134#0"/>
    <trip id="veh30" type="veh_passenger" depart="201.01" departLane="best" from="-23012592#0" to="-23012592#0"/>
    <trip id="veh31" type="veh_passenger" depart="207.71" departLane="best" departSpeed="max" from="1154078870#0" to="38920464#2"/>
    <trip id="veh34" type="veh_passenger" depart="227.81" departLane="best" from="-1220616652#2" to="-1154078875#0"/>
    <trip id="veh35" type="veh_passenger" depart="234.51" departLane="best" departSpeed="max" from="23012592#0" to="-563565132#2"/>
    <trip id="veh36" type="veh_passenger" depart="241.21" departLane="best" departSpeed="max" from="-1156802706#1" to="-563565126#0"/>
    <trip id="veh38" type="veh_passenger" depart="254.61" departLane="best" from="-1154068136#1" to="154903204#4"/>
    <trip id="veh39" type="veh_passenger" depart="261.31" departLane="best" from="-1220616710#0" to="1156802706#1"/>
    <trip id="veh40" type="veh_passenger" depart="268.01" departLane="best" from="-23012592#1" to="1220616725#2"/>
    <trip id="veh41" type="veh_passenger" depart="274.71" departLane="best" from="563565131" to="563565133#6"/>
    <trip id="veh42" type="veh_passenger" depart="281.41" departLane="best" from="563565118#5" to="38920464#2"/>
    <trip id="veh43" type="veh_passenger" depart="288.11" departLane="best" departSpeed="max" from="-563566626" to="-1220616730#0"/>
    <trip id="veh44" type="veh_passenger" depart="294.81" departLane="best" departSpeed="max" from="563565126#0" to="563565124#2"/>
    <trip id="veh45" type="veh_passenger" depart="301.51" departLane="best" from="-38920464#5" to="1220616725#2"/>
    <trip id="veh46" type="veh_passenger" depart="308.21" departLane="best" departSpeed="max" from="1156802705" to="-1220616728"/>
    <trip id="veh49" type="veh_passenger" depart="328.31" departLane="best" from="1154068134#0" to="-563565118#2"/>
    <trip id="veh50" type="veh_passenger" depart="335.01" departLane="best" departSpeed="max" from="-1154078872#2" to="563565131"/>
    <trip id="veh51" type="veh_passenger" depart="341.71" departLane="best" from="-450504042#0" to="1154078883#0"/>
    <trip id="veh52" type="veh_passenger" depart="348.41" departLane="best" from="563565118#6" to="563565133#2"/>
    <trip id="veh53" type="veh_passenger" depart="355.11" departLane="best" from="-1220616652#0" to="1154078871"/>
    <trip id="veh54" type="veh_passenger" depart="361.81" departLane="best" departSpeed="max" from="-1156802706#1" to="-38920464#0"/>
    <trip id="veh56" type="veh_passenger" depart="375.21" departLane="best" from="-23012592#1" to="563565124#2"/>
    <trip id="veh57" type="veh_passenger" depart="381.91" departLane="best" from="563565127#2" to="-154903204#2"/>
    <trip id="veh59" type="veh_passenger" depart="395.31" departLane="best" departSpeed="max" from="-1220616732#1" to="-563565116#2"/>
    <trip id="veh61" type="veh_passenger" depart="408.71" departLane="best" departSpeed="max" from="-563565129#4" to="1154078883#1"/>
    <trip id="veh63" type="veh_passenger" depart="422.11" departLane="best" departSpeed="max" from="-1156802706#1" to="1220616724#1"/>
    <trip id="veh64" type="veh_passenger" depart="428.81" departLane="best" departSpeed="max" from="-1220636146" to="563565129#0"/>
    <trip id="veh65" type="veh_passenger" depart="435.51" departLane="best" from="-563565116#4" to="-1156802705"/>
    <trip id="veh66" type="veh_passenger" depart="442.21" departLane="best" from="563565127#1" to="1220616677"/>
    <trip id="veh67" type="veh_passenger" depart="448.91" departLane="best" from="-38920464#2" to="-1220616731"/>
    <trip id="veh68" type="veh_passenger" depart="455.61" departLane="best" departSpeed="max" from="-1220616677" to="-563565133#2"/>
    <trip id="veh69" type="veh_passenger" depart="462.31" departLane="best" from="-563565128#0" to="1154068136#0"/>
    <trip id="veh70" type="veh_passenger" depart="469.01" departLane="best" departSpeed="max" from="-563565124#2" to="-563565119#2"/>
    <trip id="veh71" type="veh_passenger" depart="475.71" departLane="best" from="-563565119#0" to="-23012592#1"/>
    <trip id="veh74" type="veh_passenger" depart="495.82" departLane="best" departSpeed="max" from="-563565129#4" to="563565123#3"/>
    <trip id="veh75" type="veh_passenger" depart="502.52" departLane="best" departSpeed="max" from="1154078869" to="-1154078875#1"/>
    <trip id="veh77" type="veh_passenger" depart="515.92" departLane="best" from="450504043#4" to="-1220616729#1"/>
    <trip id="veh78" type="veh_passenger" depart="522.62" departLane="best" departSpeed="max" from="-563565133#8" to="-154903204#3"/>
    <trip id="veh79" type="veh_passenger" depart="529.32" departLane="best" departSpeed="max" from="-563565124#2" to="1154078883#0"/>
    <trip id="veh80" type="veh_passenger" depart="536.02" departLane="best" from="-563565123#0" to="563566626"/>
    <trip id="veh81" type="veh_passenger" depart="542.72" departLane="best" from="-23012592#1" to="-450504042#0"/>
    <trip id="veh83" type="veh_passenger" depart="556.12" departLane="best" departSpeed="max" from="1154078870#0" to="-154903204#3"/>
    <trip id="veh84" type="veh_passenger" depart="562.82" departLane="best" from="563565133#0" to="1220616677"/>
    <trip id="veh85" type="veh_passenger" depart="569.52" departLane="best" departSpeed="max" from="1154078869" to="23012592#3"/>
    <trip id="veh86" type="veh_passenger" depart="576.22" departLane="best" departSpeed="max" from="-1154078883#1" to="1220616676"/>
    <trip id="veh87" type="veh_passenger" depart="582.92" departLane="best" departSpeed="max" from="-563566626" to="563565122"/>
    <trip id="veh88" type="veh_passenger" depart="589.62" departLane="best" from="-1220616725#0" to="563565133#8"/>
    <trip id="veh89" type="veh_passenger" depart="596.32" departLane="best" from="-1220616651#2" to="-1220616731"/>
    <trip id="veh90" type="veh_passenger" depart="603.02" departLane="best" from="1154078876#1" to="1220616732#1"/>
    <trip id="veh91" type="veh_passenger" depart="609.72" departLane="best" from="154903204#1" to="-1220616680#0"/>
    <trip id="veh92" type="veh_passenger" depart="616.42" departLane="best" from="563565120" to="-23012592#0"/>
    <trip id="veh93" type="veh_passenger" depart="623.12" departLane="best" from="1154078876#1" to="1220616724#1"/>
    <trip id="veh94" type="veh_passenger" depart="629.82" departLane="best" from="-563565127#1" to="1220616676"/>
    <trip id="veh96" type="veh_passenger" depart="643.22" departLane="best" departSpeed="max" from="-1220616732#1" to="154903204#3"/>
    <trip id="veh97" type="veh_passenger" depart="649.92" departLane="best" from="154903204#2" to="-563565127#2"/>
    <trip id="veh98" type="veh_passenger" depart="656.62" departLane="best" from="-450504042#3" to="23012592#3"/>
    <trip id="veh99" type="veh_passenger" depart="663.32" departLane="best" departSpeed="max" from="-1156802706#1" to="1154068134#0"/>
    <trip id="veh100" type="veh_passenger" depart="670.02" departLane="best" departSpeed="max" from="705810210" to="705810210"/>
    <trip id="veh101" type="veh_passenger" depart="676.72" departLane="best" departSpeed="max" from="-1156802706#1" to="-154903204#3"/>
    <trip id="veh102" type="veh_passenger" depart="683.42" departLane="best" from="-23012592#1" to="563565132#0"/>
    <trip id="veh103" type="veh_passenger" depart="690.12" departLane="best" from="-563565118#7" to="563565124#2"/>
    <trip id="veh104" type="veh_passenger" depart="696.82" departLane="best" from="-563565119#1" to="-1220616728"/>
    <trip id="veh105" type="veh_passenger" depart="703.52" departLane="best" from="-450504042#4" to="1220636146"/>
    <trip id="veh107" type="veh_passenger" depart="716.92" departLane="best" departSpeed="max" from="1220616680#0" to="1154068135"/>
    <trip id="veh108" type="veh_passenger" depart="723.62" departLane="best" from="-38920464#6" to="450504043#1"/>
    <trip id="veh109" type="veh_passenger" depart="730.32" departLane="best" departSpeed="max" from="1220616680#0" to="-563565132#2"/>
    <trip id="veh110" type="veh_passenger" depart="737.02" departLane="best" departSpeed="max" from="-1220616710#1" to="-1220616680#0"/>
    <trip id="veh111" type="veh_passenger" depart="743.72" departLane="best" departSpeed="max" from="-1220616677" to="1220616651#3"/>
    <trip id="veh112" type="veh_passenger" depart="750.42" departLane="best" departSpeed="max" from="-23012592#3" to="1220616710#1"/>
    <trip id="veh113" type="veh_passenger" depart="757.12" departLane="best" departSpeed="max" from="1220616730#0" to="-154903203"/>
    <trip id="veh114" type="veh_passenger" depart="763.82" departLane="best" departSpeed="max" from="-563565133#8" to="563565129#0"/>
    <trip id="veh115" type="veh_passenger" depart="770.52" departLane="best" from="-563565128#0" to="38920464#7"/>
    <trip id="veh116" type="veh_passenger" depart="777.22" departLane="best" from="-1154068134#1" to="38920464#4"/>
    <trip id="veh117" type="veh_passenger" depart="783.92" departLane="best" from="1220616732#0" to="1220616651#2"/>
    <trip id="veh118" type="veh_passenger" depart="790.62" departLane="best" from="-563565128#1" to="-1154068136#0"/>
    <trip id="veh119" type="veh_passenger" depart="797.32" departLane="best" departSpeed="max" from="-1156802706#1" to="563565124#1"/>
    <trip id="veh120" type="veh_passenger" depart="804.03" departLane="best" from="563565123#3" to="1156802706#1"/>
    <trip id="veh121" type="veh_passenger" depart="810.73" departLane="best" from="-450504042#4" to="1220616676"/>
    <trip id="veh122" type="veh_passenger" depart="817.43" departLane="best" from="-450504042#0" to="563565128#0"/>
    <trip id="veh123" type="veh_passenger" depart="824.13" departLane="best" from="23012592#2" to="-563565123#3"/>
    <trip id="veh124" type="veh_passenger" depart="830.83" departLane="best" from="563565123#2" to="-154903204#1"/>
    <trip id="veh126" type="veh_passenger" depart="844.23" departLane="best" departSpeed="max" from="23012592#0" to="563565124#1"/>
    <trip id="veh127" type="veh_passenger" depart="850.93" departLane="best" departSpeed="max" from="-563565124#2" to="1220616724#1"/>
    <trip id="veh128" type="veh_passenger" depart="857.63" departLane="best" departSpeed="max" from="-1220616724#1" to="563565131"/>
    <trip id="veh129" type="veh_passenger" depart="864.33" departLane="best" from="563565118#0" to="563566626"/>
    <trip id="veh130" type="veh_passenger" depart="871.03" departLane="best" from="-38920464#3" to="563565124#2"/>
    <trip id="veh132" type="veh_passenger" depart="884.43" departLane="best" from="-38920464#0" to="563565124#0"/>
    <trip id="veh133" type="veh_passenger" depart="891.13" departLane="best" departSpeed="max" from="23012592#0" to="1220616652#3"/>
    <trip id="veh134" type="veh_passenger" depart="897.83" departLane="best" from="563565118#3" to="-563565123#2"/>
    <trip id="veh135" type="veh_passenger" depart="904.53" departLane="best" departSpeed="max" from="-1220636146" to="563565116#2"/>
    <trip id="veh137" type="veh_passenger" depart="917.93" departLane="best" departSpeed="max" from="-1154078872#2" to="-1220616731"/>
    <trip id="veh138" type="veh_passenger" depart="924.63" departLane="best" from="450504043#2" to="563565124#0"/>
    <trip id="veh139" type="veh_passenger" depart="931.33" departLane="best" from="-563565133#6" to="1156802706#1"/>
    <trip id="veh140" type="veh_passenger" depart="938.03" departLane="best" from="563565127#2" to="-1220616680#0"/>
    <trip id="veh141" type="veh_passenger" depart="944.73" departLane="best" from="-563565133#1" to="-1220616730#0"/>
    <trip id="veh142" type="veh_passenger" depart="951.43" departLane="best" departSpeed="max" from="-1220616677" to="-563565133#5"/>
    <trip id="veh143" type="veh_passenger" depart="958.13" departLane="best" departSpeed="max" from="1220616731" to="-563565116#2"/>
    <trip id="veh144" type="veh_passenger" depart="964.83" departLane="best" departSpeed="max" from="1156802705" to="-1154078876#1"/>
    <trip id="veh145" type="veh_passenger" depart="971.53" departLane="best" from="563565123#2" to="1220616677"/>
    <trip id="veh147" type="veh_passenger" depart="984.93" departLane="best" from="1154068134#0" to="563565129#4"/>
    <trip id="veh148" type="veh_passenger" depart="991.63" departLane="best" from="-563565119#0" to="-1156802705"/>
    <trip id="veh149" type="veh_passenger" depart="998.33" departLane="best" from="1220616680#1" to="-563565118#5"/>
    <trip id="veh150" type="veh_passenger" depart="1005.03" departLane="best" departSpeed="max" from="1220616730#0" to="-450504043#1"/>
    <trip id="veh151" type="veh_passenger" depart="1011.73" departLane="best" from="-450504042#1" to="563565129#3"/>
    <trip id="veh152" type="veh_passenger" depart="1018.43" departLane="best" departSpeed="max" from="-563565124#2" to="-450504043#0"/>
    <trip id="veh153" type="veh_passenger" depart="1025.13" departLane="best" from="-563565128#0" to="1220616732#1"/>
    <trip id="veh154" type="veh_passenger" depart="1031.83" departLane="best" from="-38920464#6" to="-1220616651#1"/>
    <trip id="veh155" type="veh_passenger" depart="1038.53" departLane="best" from="1154068134#0" to="-450504042#3"/>
    <trip id="veh156" type="veh_passenger" depart="1045.23" departLane="best" from="-563565129#0" to="1220616677"/>
    <trip id="veh157" type="veh_passenger" depart="1051.93" departLane="best" departSpeed="max" from="1220616680#0" to="1154068136#0"/>
    <trip id="veh158" type="veh_passenger" depart="1058.63" departLane="best" departSpeed="max" from="-563565129#4" to="-154903204#3"/>
    <trip id="veh159" type="veh_passenger" depart="1065.33" departLane="best" from="-563565133#3" to="563565128#0"/>
    <trip id="veh160" type="veh_passenger" depart="1072.03" departLane="best" from="23012592#2" to="-1220616730#0"/>
    <trip id="veh161" type="veh_passenger" depart="1078.73" departLane="best" from="-1220616652#0" to="1154078883#0"/>
    <trip id="veh162" type="veh_passenger" depart="1085.43" departLane="best" from="1220616651#2" to="-563565118#7"/>
    <trip id="veh163" type="veh_passenger" depart="1092.13" departLane="best" from="38920464#6" to="23012592#3"/>
    <trip id="veh165" type="veh_passenger" depart="1105.53" departLane="best" from="-1220616732#0" to="-1154078870#0"/>
    <trip id="veh166" type="veh_passenger" depart="1112.23" departLane="best" from="-563565116#0" to="-1156802705"/>
    <trip id="veh167" type="veh_passenger" depart="1118.93" departLane="best" from="1220616730#1" to="1220636146"/>
    <trip id="veh168" type="veh_passenger" depart="1125.64" departLane="best" departSpeed="max" from="-563565133#8" to="-23012592#0"/>
    <trip id="veh169" type="veh_passenger" depart="1132.34" departLane="best" departSpeed="max" from="1220616680#0" to="1154068135"/>
    <trip id="veh170" type="veh_passenger" depart="1139.04" departLane="best" from="154903204#0" to="38920464#3"/>
    <trip id="veh171" type="veh_passenger" depart="1145.74" departLane="best" departSpeed="max" from="-1220616677" to="-563565133#0"/>
    <trip id="veh172" type="veh_passenger" depart="1152.44" departLane="best" departSpeed="max" from="-1220616727" to="563565133#7"/>
    <trip id="veh176" type="veh_passenger" depart="1179.24" departLane="best" from="1154078876#1" to="563565133#3"/>
    <trip id="veh177" type="veh_passenger" depart="1185.94" departLane="best" from="563565121" to="1220616710#1"/>
    <trip id="veh178" type="veh_passenger" depart="1192.64" departLane="best" departSpeed="max" from="1220616730#0" to="1154078874"/>
    <trip id="veh179" type="veh_passenger" depart="1199.34" departLane="best" from="154903204#4" to="1220616651#1"/>
    <trip id="veh180" type="veh_passenger" depart="1206.04" departLane="best" from="563565123#1" to="-23012592#2"/>
    <trip id="veh183" type="veh_passenger" depart="1226.14" departLane="best" departSpeed="max" from="1220616651#0" to="38920464#6"/>
    <trip id="veh184" type="veh_passenger" depart="1232.84" departLane="best" from="-1220616651#1" to="450504042#2"/>
    <trip id="veh185" type="veh_passenger" depart="1239.54" departLane="best" departSpeed="max" from="-23012592#3" to="-563565118#1"/>
    <trip id="veh186" type="veh_passenger" depart="1246.24" departLane="best" from="154903203" to="1220636146"/>
    <trip id="veh187" type="veh_passenger" depart="1252.94" departLane="best" from="1220616729#0" to="-1156802705"/>
    <trip id="veh188" type="veh_passenger" depart="1259.64" departLane="best" from="-563565124#1" to="1156802706#1"/>
    <trip id="veh189" type="veh_passenger" depart="1266.34" departLane="best" from="-563565127#0" to="-154903204#0"/>
    <trip id="veh190" type="veh_passenger" depart="1273.04" departLane="best" departSpeed="max" from="1154078875#0" to="1220636146"/>
    <trip id="veh191" type="veh_passenger" depart="1279.74" departLane="best" from="-563565116#2" to="38920464#2"/>
    <trip id="veh192" type="veh_passenger" depart="1286.44" departLane="best" from="563565123#1" to="1154068135"/>
    <trip id="veh193" type="veh_passenger" depart="1293.14" departLane="best" from="563565118#2" to="23012592#3"/>
    <trip id="veh194" type="veh_passenger" depart="1299.84" departLane="best" from="-563565116#1" to="563565133#5"/>
    <trip id="veh195" type="veh_passenger" depart="1306.54" departLane="best" from="563565127#1" to="23012592#3"/>
    <trip id="veh197" type="veh_passenger" depart="1319.94" departLane="best" from="-563565129#3" to="1154078871"/>
    <trip id="veh198" type="veh_passenger" depart="1326.64" departLane="best" from="563565116#1" to="1220616732#1"/>
    <trip id="veh199" type="veh_passenger" depart="1333.34" departLane="best" departSpeed="max" from="-563565124#2" to="-1220616729#1"/>
    <trip id="veh200" type="veh_passenger" depart="1340.04" departLane="best" departSpeed="max" from="-563565124#2" to="1220616652#3"/>
    <trip id="veh201" type="veh_passenger" depart="1346.74" departLane="best" departSpeed="max" from="-1154078872#2" to="1220616725#2"/>
    <trip id="veh202" type="veh_passenger" depart="1353.44" departLane="best" departSpeed="max" from="-1220616710#1" to="1154068134#1"/>
    <trip id="veh203" type="veh_passenger" depart="1360.14" departLane="best" departSpeed="max" from="-1154078883#1" to="-563565126#0"/>
    <trip id="veh204" type="veh_passenger" depart="1366.84" departLane="best" from="154903204#1" to="-563565118#3"/>
    <trip id="veh206" type="veh_passenger" depart="1380.24" departLane="best" departSpeed="max" from="-1154078872#2" to="1156802706#1"/>
    <trip id="veh208" type="veh_passenger" depart="1393.64" departLane="best" from="1220616680#1" to="38920464#7"/>
    <trip id="veh209" type="veh_passenger" depart="1400.34" departLane="best" departSpeed="max" from="1220616680#0" to="23012592#3"/>
    <trip id="veh210" type="veh_passenger" depart="1407.04" departLane="best" from="-563565129#2" to="1220616732#0"/>
    <trip id="veh211" type="veh_passenger" depart="1413.74" departLane="best" departSpeed="max" from="-1154078872#2" to="-1220616728"/>
    <trip id="veh212" type="veh_passenger" depart="1420.44" departLane="best" departSpeed="max" from="1154078870#0" to="-154903204#4"/>
    <trip id="veh213" type="veh_passenger" depart="1427.14" departLane="best" departSpeed="max" from="1220616728" to="38920464#2"/>
    <trip id="veh214" type="veh_passenger" depart="1433.84" departLane="best" from="154903203" to="-1220616680#0"/>
    <trip id="veh215" type="veh_passenger" depart="1440.55" departLane="best" from="-38920464#6" to="563565133#8"/>
    <trip id="veh216" type="veh_passenger" depart="1447.25" departLane="best" from="-450504042#2" to="1220616732#1"/>
    <trip id="veh217" type="veh_passenger" depart="1453.95" departLane="best" departSpeed="max" from="1220616730#0" to="1156802706#0"/>
    <trip id="veh218" type="veh_passenger" depart="1460.65" departLane="best" departSpeed="max" from="-1220616677" to="38920464#4"/>
    <trip id="veh219" type="veh_passenger" depart="1467.35" departLane="best" departSpeed="max" from="-1220616709#1" to="563566626"/>
    <trip id="veh220" type="veh_passenger" depart="1474.05" departLane="best" departSpeed="max" from="23012592#0" to="-563565122"/>
    <trip id="veh221" type="veh_passenger" depart="1480.75" departLane="best" from="-563565128#1" to="-563565126#0"/>
    <trip id="veh222" type="veh_passenger" depart="1487.45" departLane="best" departSpeed="max" from="-563566626" to="-563565119#2"/>
    <trip id="veh223" type="veh_passenger" depart="1494.15" departLane="best" from="1220616651#3" to="-563565118#2"/>
    <trip id="veh224" type="veh_passenger" depart="1500.85" departLane="best" from="1220616729#0" to="563565133#5"/>
    <trip id="veh225" type="veh_passenger" depart="1507.55" departLane="best" departSpeed="max" from="1220616731" to="563565133#8"/>
    <trip id="veh226" type="veh_passenger" depart="1514.25" departLane="best" from="23012592#2" to="-450504043#0"/>
    <trip id="veh227" type="veh_passenger" depart="1520.95" departLane="best" from="1154068136#1" to="1154078870#2"/>
    <trip id="veh229" type="veh_passenger" depart="1534.35" departLane="best" from="23012592#2" to="563565121"/>
    <trip id="veh230" type="veh_passenger" depart="1541.05" departLane="best" from="-450504042#3" to="-1220616651#0"/>
    <trip id="veh231" type="veh_passenger" depart="1547.75" departLane="best" from="-563565118#7" to="-23012592#0"/>
    <trip id="veh232" type="veh_passenger" depart="1554.45" departLane="best" from="-563565123#0" to="1154078871"/>
    <trip id="veh233" type="veh_passenger" depart="1561.15" departLane="best" departSpeed="max" from="-1220616732#1" to="450504043#1"/>
    <trip id="veh234" type="veh_passenger" depart="1567.85" departLane="best" from="-563565116#2" to="563565124#2"/>
    <trip id="veh235" type="veh_passenger" depart="1574.55" departLane="best" departSpeed="max" from="1220616728" to="38920464#7"/>
    <trip id="veh236" type="veh_passenger" depart="1581.25" departLane="best" from="-1154068136#0" to="563565133#2"/>
    <trip id="veh237" type="veh_passenger" depart="1587.95" departLane="best" from="-1220616652#0" to="-154903204#4"/>
    <trip id="veh238" type="veh_passenger" depart="1594.65" departLane="best" departSpeed="max" from="-563565133#8" to="23012592#3"/>
    <trip id="veh239" type="veh_passenger" depart="1601.35" departLane="best" departSpeed="max" from="-563565133#8" to="450504042#4"/>
    <trip id="veh241" type="veh_passenger" depart="1614.75" departLane="best" departSpeed="max" from="1220616728" to="-563565116#0"/>
    <trip id="veh242" type="veh_passenger" depart="1621.45" departLane="best" departSpeed="max" from="1154078875#0" to="1154078870#2"/>
    <trip id="veh243" type="veh_passenger" depart="1628.15" departLane="best" from="-1154068135" to="563565133#0"/>
    <trip id="veh244" type="veh_passenger" depart="1634.85" departLane="best" from="154903203" to="-563565118#6"/>
    <trip id="veh245" type="veh_passenger" depart="1641.55" departLane="best" departSpeed="max" from="1220616728" to="38920464#5"/>
    <trip id="veh247" type="veh_passenger" depart="1654.95" departLane="best" from="1220616729#1" to="-1220616680#0"/>
    <trip id="veh248" type="veh_passenger" depart="1661.65" departLane="best" from="1154068136#1" to="38920464#0"/>
    <trip id="veh249" type="veh_passenger" depart="1668.35" departLane="best" departSpeed="max" from="-1220616727" to="-154903204#4"/>
    <trip id="veh251" type="veh_passenger" depart="1681.75" departLane="best" from="-563565133#3" to="1154078883#1"/>
    <trip id="veh252" type="veh_passenger" depart="1688.45" departLane="best" departSpeed="max" from="-23012592#3" to="-1220616652#0"/>
    <trip id="veh254" type="veh_passenger" depart="1701.85" departLane="best" departSpeed="max" from="-1220616727" to="-1154078870#0"/>
    <trip id="veh255" type="veh_passenger" depart="1708.55" departLane="best" from="1154068136#0" to="38920464#6"/>
    <trip id="veh256" type="veh_passenger" depart="1715.25" departLane="best" from="563565133#2" to="1220616651#3"/>
    <trip id="veh257" type="veh_passenger" depart="1721.95" departLane="best" departSpeed="max" from="1220616728" to="-1220616709#0"/>
    <trip id="veh258" type="veh_passenger" depart="1728.65" departLane="best" from="563565118#1" to="1154078872#2"/>
    <trip id="veh259" type="veh_passenger" depart="1735.35" departLane="best" from="563565118#3" to="1220616677"/>
    <trip id="veh260" type="veh_passenger" depart="1742.05" departLane="best" departSpeed="max" from="-1220616727" to="-1154078875#1"/>